<additional xmlns:xsi="http://www.w3.org/2001/XMLSchema-instance" xsi:noNamespaceSchemaLocation="http://sumo.dlr.de/xsd/additional_file.xsd">
    <e1Detector id="e1_-123961786_0" lane="-123961786_0" pos="28.88" period="300.00" file="detector_data.xml" />
    <e1Detector id="e1_-123961980_0" lane="-123961980_0" pos="55.03" period="300.00" file="detector_data.xml" />
    <e1Detector id="e1_-128052719_0" lane="-128052719_0" pos="77.58" period="300.00" file="detector_data.xml" />
    <e1Detector id="e1_-128497195_0" lane="-128497195_0" pos="42.13" period="300.00" file="detector_data.xml" />
    <e1Detector id="e1_-22661031#2_0" lane="-22661031#2_0" pos="250.69" period="300.00" file="detector_data.xml" />
    <e1Detector id="e1_-22907450_0" lane="-22907450_0" pos="45.84" period="300.00" file="detector_data.xml" />
    <e1Detector id="e1_-275503318#2_0" lane="-275503318#2_0" pos="32.24" period="300.00" file="detector_data.xml" />
    <e1Detector id="e1_-8296126#3_0" lane="-8296126#3_0" pos="37.35" period="300.00" file="detector_data.xml" />
    <e1Detector id="e1_-86382092_0" lane="-86382092_0" pos="4.34" period="300.00" file="detector_data.xml" />
    <e1Detector id="e1_-86382126_0" lane="-86382126_0" pos="19.50" period="300.00" file="detector_data.xml" />
    <e1Detector id="e1_123959660_0" lane="123959660_0" pos="33.85" period="300.00" file="detector_data.xml" />
    <e1Detector id="e1_123959844_0" lane="123959844_0" pos="149.56" period="300.00" file="detector_data.xml" />
    <e1Detector id="e1_123960179_0" lane="123960179_0" pos="198.96" period="300.00" file="detector_data.xml" />
    <e1Detector id="e1_123960426_0" lane="123960426_0" pos="199.92" period="300.00" file="detector_data.xml" />
    <e1Detector id="e1_123960478_0" lane="123960478_0" pos="102.33" period="300.00" file="detector_data.xml" />
    <e1Detector id="e1_123960508_0" lane="123960508_0" pos="45.46" period="300.00" file="detector_data.xml" />
    <e1Detector id="e1_123961229#0_0" lane="123961229#0_0" pos="83.75" period="300.00" file="detector_data.xml" />
    <e1Detector id="e1_123961229#0_1" lane="123961229#0_1" pos="83.75" period="300.00" file="detector_data.xml" />
    <e1Detector id="e1_123961229#0_2" lane="123961229#0_2" pos="83.75" period="300.00" file="detector_data.xml" />
    <e1Detector id="e1_123961229#1_0" lane="123961229#1_0" pos="623.73" period="300.00" file="detector_data.xml" />
    <e1Detector id="e1_123961229#1_1" lane="123961229#1_1" pos="623.73" period="300.00" file="detector_data.xml" />
    <e1Detector id="e1_123961229#1_2" lane="123961229#1_2" pos="623.73" period="300.00" file="detector_data.xml" />
    <e1Detector id="e1_123961229#1-AddedOffRampEdge_0" lane="123961229#1-AddedOffRampEdge_0" pos="46.03" period="300.00" file="detector_data.xml" />
    <e1Detector id="e1_123961229#1-AddedOffRampEdge_1" lane="123961229#1-AddedOffRampEdge_1" pos="46.03" period="300.00" file="detector_data.xml" />
    <e1Detector id="e1_123961229#1-AddedOffRampEdge_2" lane="123961229#1-AddedOffRampEdge_2" pos="46.03" period="300.00" file="detector_data.xml" />
    <e1Detector id="e1_123961229#1-AddedOffRampEdge_3" lane="123961229#1-AddedOffRampEdge_3" pos="46.03" period="300.00" file="detector_data.xml" />
    <e1Detector id="e1_123961229#1-AddedOnRampEdge_0" lane="123961229#1-AddedOnRampEdge_0" pos="46.02" period="300.00" file="detector_data.xml" />
    <e1Detector id="e1_123961229#1-AddedOnRampEdge_1" lane="123961229#1-AddedOnRampEdge_1" pos="46.02" period="300.00" file="detector_data.xml" />
    <e1Detector id="e1_123961229#1-AddedOnRampEdge_2" lane="123961229#1-AddedOnRampEdge_2" pos="46.02" period="300.00" file="detector_data.xml" />
    <e1Detector id="e1_123961229#1-AddedOnRampEdge_3" lane="123961229#1-AddedOnRampEdge_3" pos="46.02" period="300.00" file="detector_data.xml" />
    <e1Detector id="e1_123961236#0_0" lane="123961236#0_0" pos="92.69" period="300.00" file="detector_data.xml" />
    <e1Detector id="e1_123961236#0_1" lane="123961236#0_1" pos="92.69" period="300.00" file="detector_data.xml" />
    <e1Detector id="e1_123961236#0_2" lane="123961236#0_2" pos="92.69" period="300.00" file="detector_data.xml" />
    <e1Detector id="e1_123961236#1_0" lane="123961236#1_0" pos="984.72" period="300.00" file="detector_data.xml" />
    <e1Detector id="e1_123961236#1_1" lane="123961236#1_1" pos="984.72" period="300.00" file="detector_data.xml" />
    <e1Detector id="e1_123961236#1_2" lane="123961236#1_2" pos="984.72" period="300.00" file="detector_data.xml" />
    <e1Detector id="e1_123961236#1-AddedOffRampEdge_0" lane="123961236#1-AddedOffRampEdge_0" pos="46.02" period="300.00" file="detector_data.xml" />
    <e1Detector id="e1_123961236#1-AddedOffRampEdge_1" lane="123961236#1-AddedOffRampEdge_1" pos="46.02" period="300.00" file="detector_data.xml" />
    <e1Detector id="e1_123961236#1-AddedOffRampEdge_2" lane="123961236#1-AddedOffRampEdge_2" pos="46.02" period="300.00" file="detector_data.xml" />
    <e1Detector id="e1_123961236#1-AddedOffRampEdge_3" lane="123961236#1-AddedOffRampEdge_3" pos="46.02" period="300.00" file="detector_data.xml" />
    <e1Detector id="e1_123961236#1-AddedOnRampEdge_0" lane="123961236#1-AddedOnRampEdge_0" pos="46.04" period="300.00" file="detector_data.xml" />
    <e1Detector id="e1_123961236#1-AddedOnRampEdge_1" lane="123961236#1-AddedOnRampEdge_1" pos="46.04" period="300.00" file="detector_data.xml" />
    <e1Detector id="e1_123961236#1-AddedOnRampEdge_2" lane="123961236#1-AddedOnRampEdge_2" pos="46.04" period="300.00" file="detector_data.xml" />
    <e1Detector id="e1_123961236#1-AddedOnRampEdge_3" lane="123961236#1-AddedOnRampEdge_3" pos="46.04" period="300.00" file="detector_data.xml" />
    <e1Detector id="e1_123961236#12_0" lane="123961236#12_0" pos="519.74" period="300.00" file="detector_data.xml" />
    <e1Detector id="e1_123961236#12_1" lane="123961236#12_1" pos="519.74" period="300.00" file="detector_data.xml" />
    <e1Detector id="e1_123961236#12_2" lane="123961236#12_2" pos="519.74" period="300.00" file="detector_data.xml" />
    <e1Detector id="e1_123961236#13_0" lane="123961236#13_0" pos="154.53" period="300.00" file="detector_data.xml" />
    <e1Detector id="e1_123961236#13_1" lane="123961236#13_1" pos="154.53" period="300.00" file="detector_data.xml" />
    <e1Detector id="e1_123961236#13_2" lane="123961236#13_2" pos="154.53" period="300.00" file="detector_data.xml" />
    <e1Detector id="e1_123961236#13-AddedOffRampEdge_0" lane="123961236#13-AddedOffRampEdge_0" pos="46.02" period="300.00" file="detector_data.xml" />
    <e1Detector id="e1_123961236#13-AddedOffRampEdge_1" lane="123961236#13-AddedOffRampEdge_1" pos="46.02" period="300.00" file="detector_data.xml" />
    <e1Detector id="e1_123961236#13-AddedOffRampEdge_2" lane="123961236#13-AddedOffRampEdge_2" pos="46.02" period="300.00" file="detector_data.xml" />
    <e1Detector id="e1_123961236#13-AddedOffRampEdge_3" lane="123961236#13-AddedOffRampEdge_3" pos="46.02" period="300.00" file="detector_data.xml" />
    <e1Detector id="e1_123961236#13-AddedOnRampEdge_0" lane="123961236#13-AddedOnRampEdge_0" pos="46.01" period="300.00" file="detector_data.xml" />
    <e1Detector id="e1_123961236#13-AddedOnRampEdge_1" lane="123961236#13-AddedOnRampEdge_1" pos="46.01" period="300.00" file="detector_data.xml" />
    <e1Detector id="e1_123961236#13-AddedOnRampEdge_2" lane="123961236#13-AddedOnRampEdge_2" pos="46.01" period="300.00" file="detector_data.xml" />
    <e1Detector id="e1_123961236#13-AddedOnRampEdge_3" lane="123961236#13-AddedOnRampEdge_3" pos="46.01" period="300.00" file="detector_data.xml" />
    <e1Detector id="e1_123961236#6_0" lane="123961236#6_0" pos="102.19" period="300.00" file="detector_data.xml" />
    <e1Detector id="e1_123961236#6_1" lane="123961236#6_1" pos="102.19" period="300.00" file="detector_data.xml" />
    <e1Detector id="e1_123961236#6_2" lane="123961236#6_2" pos="102.19" period="300.00" file="detector_data.xml" />
    <e1Detector id="e1_123961236#7_0" lane="123961236#7_0" pos="262.04" period="300.00" file="detector_data.xml" />
    <e1Detector id="e1_123961236#7_1" lane="123961236#7_1" pos="262.04" period="300.00" file="detector_data.xml" />
    <e1Detector id="e1_123961236#7_2" lane="123961236#7_2" pos="262.04" period="300.00" file="detector_data.xml" />
    <e1Detector id="e1_123961236#7-AddedOffRampEdge_0" lane="123961236#7-AddedOffRampEdge_0" pos="45.94" period="300.00" file="detector_data.xml" />
    <e1Detector id="e1_123961236#7-AddedOffRampEdge_1" lane="123961236#7-AddedOffRampEdge_1" pos="45.94" period="300.00" file="detector_data.xml" />
    <e1Detector id="e1_123961236#7-AddedOffRampEdge_2" lane="123961236#7-AddedOffRampEdge_2" pos="45.94" period="300.00" file="detector_data.xml" />
    <e1Detector id="e1_123961236#7-AddedOffRampEdge_3" lane="123961236#7-AddedOffRampEdge_3" pos="45.94" period="300.00" file="detector_data.xml" />
    <e1Detector id="e1_123961236#7-AddedOnRampEdge_0" lane="123961236#7-AddedOnRampEdge_0" pos="46.05" period="300.00" file="detector_data.xml" />
    <e1Detector id="e1_123961236#7-AddedOnRampEdge_1" lane="123961236#7-AddedOnRampEdge_1" pos="46.05" period="300.00" file="detector_data.xml" />
    <e1Detector id="e1_123961236#7-AddedOnRampEdge_2" lane="123961236#7-AddedOnRampEdge_2" pos="46.05" period="300.00" file="detector_data.xml" />
    <e1Detector id="e1_123961236#7-AddedOnRampEdge_3" lane="123961236#7-AddedOnRampEdge_3" pos="46.05" period="300.00" file="detector_data.xml" />
    <e1Detector id="e1_123961236#8_0" lane="123961236#8_0" pos="582.96" period="300.00" file="detector_data.xml" />
    <e1Detector id="e1_123961236#8_1" lane="123961236#8_1" pos="582.96" period="300.00" file="detector_data.xml" />
    <e1Detector id="e1_123961236#8_2" lane="123961236#8_2" pos="582.96" period="300.00" file="detector_data.xml" />
    <e1Detector id="e1_123961236#9_0" lane="123961236#9_0" pos="819.51" period="300.00" file="detector_data.xml" />
    <e1Detector id="e1_123961236#9_1" lane="123961236#9_1" pos="819.51" period="300.00" file="detector_data.xml" />
    <e1Detector id="e1_123961236#9_2" lane="123961236#9_2" pos="819.51" period="300.00" file="detector_data.xml" />
    <e1Detector id="e1_123961236#9-AddedOffRampEdge_0" lane="123961236#9-AddedOffRampEdge_0" pos="51.19" period="300.00" file="detector_data.xml" />
    <e1Detector id="e1_123961236#9-AddedOffRampEdge_1" lane="123961236#9-AddedOffRampEdge_1" pos="51.19" period="300.00" file="detector_data.xml" />
    <e1Detector id="e1_123961236#9-AddedOffRampEdge_2" lane="123961236#9-AddedOffRampEdge_2" pos="51.19" period="300.00" file="detector_data.xml" />
    <e1Detector id="e1_123961236#9-AddedOffRampEdge_3" lane="123961236#9-AddedOffRampEdge_3" pos="51.19" period="300.00" file="detector_data.xml" />
    <e1Detector id="e1_123961236#9-AddedOnRampEdge_0" lane="123961236#9-AddedOnRampEdge_0" pos="45.99" period="300.00" file="detector_data.xml" />
    <e1Detector id="e1_123961236#9-AddedOnRampEdge_1" lane="123961236#9-AddedOnRampEdge_1" pos="45.99" period="300.00" file="detector_data.xml" />
    <e1Detector id="e1_123961236#9-AddedOnRampEdge_2" lane="123961236#9-AddedOnRampEdge_2" pos="45.99" period="300.00" file="detector_data.xml" />
    <e1Detector id="e1_123961236#9-AddedOnRampEdge_3" lane="123961236#9-AddedOnRampEdge_3" pos="45.99" period="300.00" file="detector_data.xml" />
    <e1Detector id="e1_123961786_0" lane="123961786_0" pos="27.56" period="300.00" file="detector_data.xml" />
    <e1Detector id="e1_123961980_0" lane="123961980_0" pos="57.59" period="300.00" file="detector_data.xml" />
    <e1Detector id="e1_123962072_0" lane="123962072_0" pos="274.21" period="300.00" file="detector_data.xml" />
    <e1Detector id="e1_123962072_1" lane="123962072_1" pos="274.21" period="300.00" file="detector_data.xml" />
    <e1Detector id="e1_123962072_2" lane="123962072_2" pos="274.21" period="300.00" file="detector_data.xml" />
    <e1Detector id="e1_123962130-AddedOffRampEdge_0" lane="123962130-AddedOffRampEdge_0" pos="45.99" period="300.00" file="detector_data.xml" />
    <e1Detector id="e1_123962130-AddedOffRampEdge_1" lane="123962130-AddedOffRampEdge_1" pos="45.99" period="300.00" file="detector_data.xml" />
    <e1Detector id="e1_123962130-AddedOffRampEdge_2" lane="123962130-AddedOffRampEdge_2" pos="45.99" period="300.00" file="detector_data.xml" />
    <e1Detector id="e1_123962130-AddedOffRampEdge_3" lane="123962130-AddedOffRampEdge_3" pos="45.99" period="300.00" file="detector_data.xml" />
    <e1Detector id="e1_123962130.2472_0" lane="123962130.2472_0" pos="408.98" period="300.00" file="detector_data.xml" />
    <e1Detector id="e1_123962130.2472_1" lane="123962130.2472_1" pos="408.98" period="300.00" file="detector_data.xml" />
    <e1Detector id="e1_123962130.2472_2" lane="123962130.2472_2" pos="408.98" period="300.00" file="detector_data.xml" />
    <e1Detector id="e1_123965879#0_0" lane="123965879#0_0" pos="334.05" period="300.00" file="detector_data.xml" />
    <e1Detector id="e1_123965879#0_1" lane="123965879#0_1" pos="334.05" period="300.00" file="detector_data.xml" />
    <e1Detector id="e1_123965879#0_2" lane="123965879#0_2" pos="334.05" period="300.00" file="detector_data.xml" />
    <e1Detector id="e1_123965879#1_0" lane="123965879#1_0" pos="734.86" period="300.00" file="detector_data.xml" />
    <e1Detector id="e1_123965879#1_1" lane="123965879#1_1" pos="734.86" period="300.00" file="detector_data.xml" />
    <e1Detector id="e1_123965879#1_2" lane="123965879#1_2" pos="734.86" period="300.00" file="detector_data.xml" />
    <e1Detector id="e1_123965879#1-AddedOffRampEdge_0" lane="123965879#1-AddedOffRampEdge_0" pos="46.03" period="300.00" file="detector_data.xml" />
    <e1Detector id="e1_123965879#1-AddedOffRampEdge_1" lane="123965879#1-AddedOffRampEdge_1" pos="46.03" period="300.00" file="detector_data.xml" />
    <e1Detector id="e1_123965879#1-AddedOffRampEdge_2" lane="123965879#1-AddedOffRampEdge_2" pos="46.03" period="300.00" file="detector_data.xml" />
    <e1Detector id="e1_123965879#1-AddedOffRampEdge_3" lane="123965879#1-AddedOffRampEdge_3" pos="46.03" period="300.00" file="detector_data.xml" />
    <e1Detector id="e1_123965879#1-AddedOnRampEdge_0" lane="123965879#1-AddedOnRampEdge_0" pos="45.88" period="300.00" file="detector_data.xml" />
    <e1Detector id="e1_123965879#1-AddedOnRampEdge_1" lane="123965879#1-AddedOnRampEdge_1" pos="45.88" period="300.00" file="detector_data.xml" />
    <e1Detector id="e1_123965879#1-AddedOnRampEdge_2" lane="123965879#1-AddedOnRampEdge_2" pos="45.88" period="300.00" file="detector_data.xml" />
    <e1Detector id="e1_123965879#1-AddedOnRampEdge_3" lane="123965879#1-AddedOnRampEdge_3" pos="45.88" period="300.00" file="detector_data.xml" />
    <e1Detector id="e1_123965879#3_0" lane="123965879#3_0" pos="81.21" period="300.00" file="detector_data.xml" />
    <e1Detector id="e1_123965879#3_1" lane="123965879#3_1" pos="81.21" period="300.00" file="detector_data.xml" />
    <e1Detector id="e1_123965879#3_2" lane="123965879#3_2" pos="81.21" period="300.00" file="detector_data.xml" />
    <e1Detector id="e1_123965879#4_0" lane="123965879#4_0" pos="871.41" period="300.00" file="detector_data.xml" />
    <e1Detector id="e1_123965879#4_1" lane="123965879#4_1" pos="871.41" period="300.00" file="detector_data.xml" />
    <e1Detector id="e1_123965879#4_2" lane="123965879#4_2" pos="871.41" period="300.00" file="detector_data.xml" />
    <e1Detector id="e1_123965879#4-AddedOffRampEdge_0" lane="123965879#4-AddedOffRampEdge_0" pos="46.08" period="300.00" file="detector_data.xml" />
    <e1Detector id="e1_123965879#4-AddedOffRampEdge_1" lane="123965879#4-AddedOffRampEdge_1" pos="46.08" period="300.00" file="detector_data.xml" />
    <e1Detector id="e1_123965879#4-AddedOffRampEdge_2" lane="123965879#4-AddedOffRampEdge_2" pos="46.08" period="300.00" file="detector_data.xml" />
    <e1Detector id="e1_123965879#4-AddedOffRampEdge_3" lane="123965879#4-AddedOffRampEdge_3" pos="46.08" period="300.00" file="detector_data.xml" />
    <e1Detector id="e1_123965879#4-AddedOnRampEdge_0" lane="123965879#4-AddedOnRampEdge_0" pos="46.02" period="300.00" file="detector_data.xml" />
    <e1Detector id="e1_123965879#4-AddedOnRampEdge_1" lane="123965879#4-AddedOnRampEdge_1" pos="46.02" period="300.00" file="detector_data.xml" />
    <e1Detector id="e1_123965879#4-AddedOnRampEdge_2" lane="123965879#4-AddedOnRampEdge_2" pos="46.02" period="300.00" file="detector_data.xml" />
    <e1Detector id="e1_123965879#4-AddedOnRampEdge_3" lane="123965879#4-AddedOnRampEdge_3" pos="46.02" period="300.00" file="detector_data.xml" />
    <e1Detector id="e1_123966730_0" lane="123966730_0" pos="172.72" period="300.00" file="detector_data.xml" />
    <e1Detector id="e1_123967087_0" lane="123967087_0" pos="70.41" period="300.00" file="detector_data.xml" />
    <e1Detector id="e1_123967236#0_0" lane="123967236#0_0" pos="457.44" period="300.00" file="detector_data.xml" />
    <e1Detector id="e1_123967236#0_1" lane="123967236#0_1" pos="457.44" period="300.00" file="detector_data.xml" />
    <e1Detector id="e1_123967236#0_2" lane="123967236#0_2" pos="457.44" period="300.00" file="detector_data.xml" />
    <e1Detector id="e1_123967236#1_0" lane="123967236#1_0" pos="874.66" period="300.00" file="detector_data.xml" />
    <e1Detector id="e1_123967236#1_1" lane="123967236#1_1" pos="874.66" period="300.00" file="detector_data.xml" />
    <e1Detector id="e1_123967236#1_2" lane="123967236#1_2" pos="874.66" period="300.00" file="detector_data.xml" />
    <e1Detector id="e1_123967236#1-AddedOffRampEdge_0" lane="123967236#1-AddedOffRampEdge_0" pos="46.00" period="300.00" file="detector_data.xml" />
    <e1Detector id="e1_123967236#1-AddedOffRampEdge_1" lane="123967236#1-AddedOffRampEdge_1" pos="46.00" period="300.00" file="detector_data.xml" />
    <e1Detector id="e1_123967236#1-AddedOffRampEdge_2" lane="123967236#1-AddedOffRampEdge_2" pos="46.00" period="300.00" file="detector_data.xml" />
    <e1Detector id="e1_123967236#1-AddedOffRampEdge_3" lane="123967236#1-AddedOffRampEdge_3" pos="46.00" period="300.00" file="detector_data.xml" />
    <e1Detector id="e1_123967236#1-AddedOnRampEdge_0" lane="123967236#1-AddedOnRampEdge_0" pos="45.99" period="300.00" file="detector_data.xml" />
    <e1Detector id="e1_123967236#1-AddedOnRampEdge_1" lane="123967236#1-AddedOnRampEdge_1" pos="45.99" period="300.00" file="detector_data.xml" />
    <e1Detector id="e1_123967236#1-AddedOnRampEdge_2" lane="123967236#1-AddedOnRampEdge_2" pos="45.99" period="300.00" file="detector_data.xml" />
    <e1Detector id="e1_123967236#1-AddedOnRampEdge_3" lane="123967236#1-AddedOnRampEdge_3" pos="45.99" period="300.00" file="detector_data.xml" />
    <e1Detector id="e1_123969747_0" lane="123969747_0" pos="394.43" period="300.00" file="detector_data.xml" />
    <e1Detector id="e1_123969747_1" lane="123969747_1" pos="394.43" period="300.00" file="detector_data.xml" />
    <e1Detector id="e1_123969747_2" lane="123969747_2" pos="394.43" period="300.00" file="detector_data.xml" />
    <e1Detector id="e1_123969747-AddedOffRampEdge_0" lane="123969747-AddedOffRampEdge_0" pos="48.01" period="300.00" file="detector_data.xml" />
    <e1Detector id="e1_123969747-AddedOffRampEdge_1" lane="123969747-AddedOffRampEdge_1" pos="48.01" period="300.00" file="detector_data.xml" />
    <e1Detector id="e1_123969747-AddedOffRampEdge_2" lane="123969747-AddedOffRampEdge_2" pos="48.01" period="300.00" file="detector_data.xml" />
    <e1Detector id="e1_123969747-AddedOnRampEdge_0" lane="123969747-AddedOnRampEdge_0" pos="43.06" period="300.00" file="detector_data.xml" />
    <e1Detector id="e1_123969747-AddedOnRampEdge_1" lane="123969747-AddedOnRampEdge_1" pos="43.06" period="300.00" file="detector_data.xml" />
    <e1Detector id="e1_123969747-AddedOnRampEdge_2" lane="123969747-AddedOnRampEdge_2" pos="43.06" period="300.00" file="detector_data.xml" />
    <e1Detector id="e1_128052719_0" lane="128052719_0" pos="79.49" period="300.00" file="detector_data.xml" />
    <e1Detector id="e1_128497195_0" lane="128497195_0" pos="41.02" period="300.00" file="detector_data.xml" />
    <e1Detector id="e1_128497230#0_0" lane="128497230#0_0" pos="76.18" period="300.00" file="detector_data.xml" />
    <e1Detector id="e1_128497230#1_0" lane="128497230#1_0" pos="300.77" period="300.00" file="detector_data.xml" />
    <e1Detector id="e1_128497230#1-AddedOnRampEdge_0" lane="128497230#1-AddedOnRampEdge_0" pos="45.83" period="300.00" file="detector_data.xml" />
    <e1Detector id="e1_128497230#1-AddedOnRampEdge_1" lane="128497230#1-AddedOnRampEdge_1" pos="45.83" period="300.00" file="detector_data.xml" />
    <e1Detector id="e1_128497341#0_0" lane="128497341#0_0" pos="234.75" period="300.00" file="detector_data.xml" />
    <e1Detector id="e1_128497436_0" lane="128497436_0" pos="73.11" period="300.00" file="detector_data.xml" />
    <e1Detector id="e1_192556113_0" lane="192556113_0" pos="16.55" period="300.00" file="detector_data.xml" />
    <e1Detector id="e1_22661029_0" lane="22661029_0" pos="12.49" period="300.00" file="detector_data.xml" />
    <e1Detector id="e1_22661030_0" lane="22661030_0" pos="50.31" period="300.00" file="detector_data.xml" />
    <e1Detector id="e1_22661031#0_0" lane="22661031#0_0" pos="249.03" period="300.00" file="detector_data.xml" />
    <e1Detector id="e1_22780363_0" lane="22780363_0" pos="165.22" period="300.00" file="detector_data.xml" />
    <e1Detector id="e1_22907436_0" lane="22907436_0" pos="17.93" period="300.00" file="detector_data.xml" />
    <e1Detector id="e1_22907450_0" lane="22907450_0" pos="46.51" period="300.00" file="detector_data.xml" />
    <e1Detector id="e1_22907452_0" lane="22907452_0" pos="25.02" period="300.00" file="detector_data.xml" />
    <e1Detector id="e1_22907453_0" lane="22907453_0" pos="8.54" period="300.00" file="detector_data.xml" />
    <e1Detector id="e1_23565360#0_0" lane="23565360#0_0" pos="253.84" period="300.00" file="detector_data.xml" />
    <e1Detector id="e1_24644789_0" lane="24644789_0" pos="191.46" period="300.00" file="detector_data.xml" />
    <e1Detector id="e1_24644789_1" lane="24644789_1" pos="191.46" period="300.00" file="detector_data.xml" />
    <e1Detector id="e1_24644790_0" lane="24644790_0" pos="201.56" period="300.00" file="detector_data.xml" />
    <e1Detector id="e1_25508818_0" lane="25508818_0" pos="81.64" period="300.00" file="detector_data.xml" />
    <e1Detector id="e1_25750596_0" lane="25750596_0" pos="55.12" period="300.00" file="detector_data.xml" />
    <e1Detector id="e1_25750689_0" lane="25750689_0" pos="57.98" period="300.00" file="detector_data.xml" />
    <e1Detector id="e1_27352484#0_0" lane="27352484#0_0" pos="85.26" period="300.00" file="detector_data.xml" />
    <e1Detector id="e1_27352485_0" lane="27352485_0" pos="64.31" period="300.00" file="detector_data.xml" />
    <e1Detector id="e1_275503308#0_0" lane="275503308#0_0" pos="96.44" period="300.00" file="detector_data.xml" />
    <e1Detector id="e1_275503308#1_0" lane="275503308#1_0" pos="50.41" period="300.00" file="detector_data.xml" />
    <e1Detector id="e1_275503308#1-AddedOnRampEdge_0" lane="275503308#1-AddedOnRampEdge_0" pos="50.03" period="300.00" file="detector_data.xml" />
    <e1Detector id="e1_275503314_0" lane="275503314_0" pos="7.78" period="300.00" file="detector_data.xml" />
    <e1Detector id="e1_275503318#0_0" lane="275503318#0_0" pos="33.05" period="300.00" file="detector_data.xml" />
    <e1Detector id="e1_29334378_0" lane="29334378_0" pos="50.67" period="300.00" file="detector_data.xml" />
    <e1Detector id="e1_29334379_0" lane="29334379_0" pos="38.62" period="300.00" file="detector_data.xml" />
    <e1Detector id="e1_29334729_0" lane="29334729_0" pos="286.07" period="300.00" file="detector_data.xml" />
    <e1Detector id="e1_32015714#0_0" lane="32015714#0_0" pos="1091.78" period="300.00" file="detector_data.xml" />
    <e1Detector id="e1_32015714#0_1" lane="32015714#0_1" pos="1091.78" period="300.00" file="detector_data.xml" />
    <e1Detector id="e1_32015714#0-AddedOffRampEdge_0" lane="32015714#0-AddedOffRampEdge_0" pos="46.00" period="300.00" file="detector_data.xml" />
    <e1Detector id="e1_32015714#0-AddedOffRampEdge_1" lane="32015714#0-AddedOffRampEdge_1" pos="46.00" period="300.00" file="detector_data.xml" />
    <e1Detector id="e1_32015714#0-AddedOffRampEdge_2" lane="32015714#0-AddedOffRampEdge_2" pos="46.00" period="300.00" file="detector_data.xml" />
    <e1Detector id="e1_32015714#1_0" lane="32015714#1_0" pos="180.23" period="300.00" file="detector_data.xml" />
    <e1Detector id="e1_32015714#1_1" lane="32015714#1_1" pos="180.23" period="300.00" file="detector_data.xml" />
    <e1Detector id="e1_321265666#1_0" lane="321265666#1_0" pos="57.87" period="300.00" file="detector_data.xml" />
    <e1Detector id="e1_321265666#1_1" lane="321265666#1_1" pos="57.87" period="300.00" file="detector_data.xml" />
    <e1Detector id="e1_321265666#1_2" lane="321265666#1_2" pos="57.87" period="300.00" file="detector_data.xml" />
    <e1Detector id="e1_321265666#2_0" lane="321265666#2_0" pos="45.11" period="300.00" file="detector_data.xml" />
    <e1Detector id="e1_321265666#2_1" lane="321265666#2_1" pos="45.11" period="300.00" file="detector_data.xml" />
    <e1Detector id="e1_321265666#2_2" lane="321265666#2_2" pos="45.11" period="300.00" file="detector_data.xml" />
    <e1Detector id="e1_321265666#2-AddedOffRampEdge_0" lane="321265666#2-AddedOffRampEdge_0" pos="45.99" period="300.00" file="detector_data.xml" />
    <e1Detector id="e1_321265666#2-AddedOffRampEdge_1" lane="321265666#2-AddedOffRampEdge_1" pos="45.99" period="300.00" file="detector_data.xml" />
    <e1Detector id="e1_321265666#2-AddedOffRampEdge_2" lane="321265666#2-AddedOffRampEdge_2" pos="45.99" period="300.00" file="detector_data.xml" />
    <e1Detector id="e1_321265666#2-AddedOffRampEdge_3" lane="321265666#2-AddedOffRampEdge_3" pos="45.99" period="300.00" file="detector_data.xml" />
    <e1Detector id="e1_321265666#2-AddedOnRampEdge_0" lane="321265666#2-AddedOnRampEdge_0" pos="46.10" period="300.00" file="detector_data.xml" />
    <e1Detector id="e1_321265666#2-AddedOnRampEdge_1" lane="321265666#2-AddedOnRampEdge_1" pos="46.10" period="300.00" file="detector_data.xml" />
    <e1Detector id="e1_321265666#2-AddedOnRampEdge_2" lane="321265666#2-AddedOnRampEdge_2" pos="46.10" period="300.00" file="detector_data.xml" />
    <e1Detector id="e1_321265666#2-AddedOnRampEdge_3" lane="321265666#2-AddedOnRampEdge_3" pos="46.10" period="300.00" file="detector_data.xml" />
    <e1Detector id="e1_321279636#1_0" lane="321279636#1_0" pos="13.55" period="300.00" file="detector_data.xml" />
    <e1Detector id="e1_321279636#1_1" lane="321279636#1_1" pos="13.55" period="300.00" file="detector_data.xml" />
    <e1Detector id="e1_321279636#1_2" lane="321279636#1_2" pos="13.55" period="300.00" file="detector_data.xml" />
    <e1Detector id="e1_321279636#2_0" lane="321279636#2_0" pos="182.46" period="300.00" file="detector_data.xml" />
    <e1Detector id="e1_321279636#2_1" lane="321279636#2_1" pos="182.46" period="300.00" file="detector_data.xml" />
    <e1Detector id="e1_321279636#2_2" lane="321279636#2_2" pos="182.46" period="300.00" file="detector_data.xml" />
    <e1Detector id="e1_321279636#2-AddedOffRampEdge_0" lane="321279636#2-AddedOffRampEdge_0" pos="45.81" period="300.00" file="detector_data.xml" />
    <e1Detector id="e1_321279636#2-AddedOffRampEdge_1" lane="321279636#2-AddedOffRampEdge_1" pos="45.81" period="300.00" file="detector_data.xml" />
    <e1Detector id="e1_321279636#2-AddedOffRampEdge_2" lane="321279636#2-AddedOffRampEdge_2" pos="45.81" period="300.00" file="detector_data.xml" />
    <e1Detector id="e1_321279636#2-AddedOffRampEdge_3" lane="321279636#2-AddedOffRampEdge_3" pos="45.81" period="300.00" file="detector_data.xml" />
    <e1Detector id="e1_321279636#2-AddedOnRampEdge_0" lane="321279636#2-AddedOnRampEdge_0" pos="45.89" period="300.00" file="detector_data.xml" />
    <e1Detector id="e1_321279636#2-AddedOnRampEdge_1" lane="321279636#2-AddedOnRampEdge_1" pos="45.89" period="300.00" file="detector_data.xml" />
    <e1Detector id="e1_321279636#2-AddedOnRampEdge_2" lane="321279636#2-AddedOnRampEdge_2" pos="45.89" period="300.00" file="detector_data.xml" />
    <e1Detector id="e1_321279636#2-AddedOnRampEdge_3" lane="321279636#2-AddedOnRampEdge_3" pos="45.89" period="300.00" file="detector_data.xml" />
    <e1Detector id="e1_321279636#3_0" lane="321279636#3_0" pos="18.77" period="300.00" file="detector_data.xml" />
    <e1Detector id="e1_321279636#3_1" lane="321279636#3_1" pos="18.77" period="300.00" file="detector_data.xml" />
    <e1Detector id="e1_321279636#3_2" lane="321279636#3_2" pos="18.77" period="300.00" file="detector_data.xml" />
    <e1Detector id="e1_321279636#4_0" lane="321279636#4_0" pos="302.64" period="300.00" file="detector_data.xml" />
    <e1Detector id="e1_321279636#4_1" lane="321279636#4_1" pos="302.64" period="300.00" file="detector_data.xml" />
    <e1Detector id="e1_321279636#4_2" lane="321279636#4_2" pos="302.64" period="300.00" file="detector_data.xml" />
    <e1Detector id="e1_321279636#4-AddedOffRampEdge_0" lane="321279636#4-AddedOffRampEdge_0" pos="45.95" period="300.00" file="detector_data.xml" />
    <e1Detector id="e1_321279636#4-AddedOffRampEdge_1" lane="321279636#4-AddedOffRampEdge_1" pos="45.95" period="300.00" file="detector_data.xml" />
    <e1Detector id="e1_321279636#4-AddedOffRampEdge_2" lane="321279636#4-AddedOffRampEdge_2" pos="45.95" period="300.00" file="detector_data.xml" />
    <e1Detector id="e1_321279636#4-AddedOffRampEdge_3" lane="321279636#4-AddedOffRampEdge_3" pos="45.95" period="300.00" file="detector_data.xml" />
    <e1Detector id="e1_321279636#4-AddedOnRampEdge_0" lane="321279636#4-AddedOnRampEdge_0" pos="45.92" period="300.00" file="detector_data.xml" />