<additional xmlns:xsi="http://www.w3.org/2001/XMLSchema-instance" xsi:noNamespaceSchemaLocation="http://sumo.dlr.de/xsd/additional_file.xsd">

    <e1Detector id="e1_106130759_0" lane="106130759_0" pos="395.94" period="5.00" file="detector_data.xml" />
    <e1Detector id="e1_106130759_1" lane="106130759_1" pos="395.94" period="5.00" file="detector_data.xml" />
    <e1Detector id="e1_106130759_2" lane="106130759_2" pos="395.94" period="5.00" file="detector_data.xml" />
    <e1Detector id="e1_106130759_3" lane="106130759_3" pos="395.94" period="5.00" file="detector_data.xml" />
    <e1Detector id="e1_106130759-AddedOffRampEdge_0" lane="106130759-AddedOffRampEdge_0" pos="63.58" period="5.00" file="detector_data.xml" />
    <e1Detector id="e1_106130759-AddedOffRampEdge_1" lane="106130759-AddedOffRampEdge_1" pos="63.58" period="5.00" file="detector_data.xml" />
    <e1Detector id="e1_106130759-AddedOffRampEdge_2" lane="106130759-AddedOffRampEdge_2" pos="63.58" period="5.00" file="detector_data.xml" />
    <e1Detector id="e1_106130759-AddedOffRampEdge_3" lane="106130759-AddedOffRampEdge_3" pos="63.58" period="5.00" file="detector_data.xml" />
    <e1Detector id="e1_106130759-AddedOffRampEdge_4" lane="106130759-AddedOffRampEdge_4" pos="63.58" period="5.00" file="detector_data.xml" />
    <e1Detector id="e1_106130759.1186_0" lane="106130759.1186_0" pos="221.92" period="5.00" file="detector_data.xml" />
    <e1Detector id="e1_106130759.1186_1" lane="106130759.1186_1" pos="221.92" period="5.00" file="detector_data.xml" />
    <e1Detector id="e1_106130759.1186_2" lane="106130759.1186_2" pos="221.92" period="5.00" file="detector_data.xml" />
    <e1Detector id="e1_106130759.1186_3" lane="106130759.1186_3" pos="221.92" period="5.00" file="detector_data.xml" />
    <e1Detector id="e1_106130759.1630_0" lane="106130759.1630_0" pos="119.02" period="5.00" file="detector_data.xml" />
    <e1Detector id="e1_106130759.1630_1" lane="106130759.1630_1" pos="119.02" period="5.00" file="detector_data.xml" />
    <e1Detector id="e1_106130759.1630_2" lane="106130759.1630_2" pos="119.02" period="5.00" file="detector_data.xml" />
    <e1Detector id="e1_106130759.1630_3" lane="106130759.1630_3" pos="119.02" period="5.00" file="detector_data.xml" />
    <e1Detector id="e1_106130759.1868_0" lane="106130759.1868_0" pos="114.94" period="5.00" file="detector_data.xml" />
    <e1Detector id="e1_106130759.1868_1" lane="106130759.1868_1" pos="114.94" period="5.00" file="detector_data.xml" />
    <e1Detector id="e1_106130759.1868_2" lane="106130759.1868_2" pos="114.94" period="5.00" file="detector_data.xml" />
    <e1Detector id="e1_106130759.1868_3" lane="106130759.1868_3" pos="114.94" period="5.00" file="detector_data.xml" />
    <e1Detector id="e1_106130759.2098_0" lane="106130759.2098_0" pos="169.37" period="5.00" file="detector_data.xml" />
    <e1Detector id="e1_106130759.2098_1" lane="106130759.2098_1" pos="169.37" period="5.00" file="detector_data.xml" />
    <e1Detector id="e1_106130759.2098_2" lane="106130759.2098_2" pos="169.37" period="5.00" file="detector_data.xml" />
    <e1Detector id="e1_106130759.2098_3" lane="106130759.2098_3" pos="169.37" period="5.00" file="detector_data.xml" />
    <e1Detector id="e1_106130759.2437_0" lane="106130759.2437_0" pos="75.19" period="5.00" file="detector_data.xml" />
    <e1Detector id="e1_106130759.2437_1" lane="106130759.2437_1" pos="75.19" period="5.00" file="detector_data.xml" />
    <e1Detector id="e1_106130759.2437_2" lane="106130759.2437_2" pos="75.19" period="5.00" file="detector_data.xml" />
    <e1Detector id="e1_106130759.2437_3" lane="106130759.2437_3" pos="75.19" period="5.00" file="detector_data.xml" />
    <e1Detector id="e1_106130759.791_0" lane="106130759.791_0" pos="197.12" period="5.00" file="detector_data.xml" />
    <e1Detector id="e1_106130759.791_1" lane="106130759.791_1" pos="197.12" period="5.00" file="detector_data.xml" />
    <e1Detector id="e1_106130759.791_2" lane="106130759.791_2" pos="197.12" period="5.00" file="detector_data.xml" />
    <e1Detector id="e1_106130759.791_3" lane="106130759.791_3" pos="197.12" period="5.00" file="detector_data.xml" />
    <e1Detector id="e1_11955830_0" lane="11955830_0" pos="136.21" period="5.00" file="detector_data.xml" />
    <e1Detector id="e1_11955830_1" lane="11955830_1" pos="136.21" period="5.00" file="detector_data.xml" />
    <e1Detector id="e1_11955830_2" lane="11955830_2" pos="136.21" period="5.00" file="detector_data.xml" />
    <e1Detector id="e1_11955831_0" lane="11955831_0" pos="58.19" period="5.00" file="detector_data.xml" />
    <e1Detector id="e1_11955831_1" lane="11955831_1" pos="58.19" period="5.00" file="detector_data.xml" />
    <e1Detector id="e1_11955831_2" lane="11955831_2" pos="58.19" period="5.00" file="detector_data.xml" />
    <e1Detector id="e1_11955831_3" lane="11955831_3" pos="58.19" period="5.00" file="detector_data.xml" />
    <e1Detector id="e1_11959492_0" lane="11959492_0" pos="144.01" period="5.00" file="detector_data.xml" />
    <e1Detector id="e1_11994462_0" lane="11994462_0" pos="87.69" period="5.00" file="detector_data.xml" />
    <e1Detector id="e1_11994462_1" lane="11994462_1" pos="87.69" period="5.00" file="detector_data.xml" />
    <e1Detector id="e1_11994462-AddedOnRampEdge_0" lane="11994462-AddedOnRampEdge_0" pos="30.05" period="5.00" file="detector_data.xml" />
    <e1Detector id="e1_11994462-AddedOnRampEdge_1" lane="11994462-AddedOnRampEdge_1" pos="30.05" period="5.00" file="detector_data.xml" />
    <e1Detector id="e1_128189136_0" lane="128189136_0" pos="127.39" period="5.00" file="detector_data.xml" />
    <e1Detector id="e1_128189136_1" lane="128189136_1" pos="127.39" period="5.00" file="detector_data.xml" />
    <e1Detector id="e1_146909950#0_0" lane="146909950#0_0" pos="31.95" period="5.00" file="detector_data.xml" />
    <e1Detector id="e1_146909950#0_1" lane="146909950#0_1" pos="31.95" period="5.00" file="detector_data.xml" />
    <e1Detector id="e1_146909950#0_2" lane="146909950#0_2" pos="31.95" period="5.00" file="detector_data.xml" />
    <e1Detector id="e1_146909950#0_3" lane="146909950#0_3" pos="31.95" period="5.00" file="detector_data.xml" />
    <e1Detector id="e1_146909950#0_4" lane="146909950#0_4" pos="31.95" period="5.00" file="detector_data.xml" />
    <e1Detector id="e1_146909950#1_0" lane="146909950#1_0" pos="57.86" period="5.00" file="detector_data.xml" />
    <e1Detector id="e1_146909950#1_1" lane="146909950#1_1" pos="57.86" period="5.00" file="detector_data.xml" />
    <e1Detector id="e1_146909950#1_2" lane="146909950#1_2" pos="57.86" period="5.00" file="detector_data.xml" />
    <e1Detector id="e1_155345296#0_0" lane="155345296#0_0" pos="131.02" period="5.00" file="detector_data.xml" />
    <e1Detector id="e1_155345296#0_1" lane="155345296#0_1" pos="131.02" period="5.00" file="detector_data.xml" />
    <e1Detector id="e1_155345296#1_0" lane="155345296#1_0" pos="32.24" period="5.00" file="detector_data.xml" />
    <e1Detector id="e1_155345296#1_1" lane="155345296#1_1" pos="32.24" period="5.00" file="detector_data.xml" />
    <e1Detector id="e1_155345296#1_2" lane="155345296#1_2" pos="32.24" period="5.00" file="detector_data.xml" />
    <e1Detector id="e1_16403444#0_0" lane="16403444#0_0" pos="127.87" period="5.00" file="detector_data.xml" />
    <e1Detector id="e1_16403444#0_1" lane="16403444#0_1" pos="127.87" period="5.00" file="detector_data.xml" />
    <e1Detector id="e1_16403444#1_0" lane="16403444#1_0" pos="76.22" period="5.00" file="detector_data.xml" />
    <e1Detector id="e1_16403444#1_1" lane="16403444#1_1" pos="76.22" period="5.00" file="detector_data.xml" />
    <e1Detector id="e1_16403444#1_2" lane="16403444#1_2" pos="76.22" period="5.00" file="detector_data.xml" />
    <e1Detector id="e1_16403446_0" lane="16403446_0" pos="57.48" period="5.00" file="detector_data.xml" />
    <e1Detector id="e1_16403446_1" lane="16403446_1" pos="57.48" period="5.00" file="detector_data.xml" />
    <e1Detector id="e1_16808971_0" lane="16808971_0" pos="173.50" period="5.00" file="detector_data.xml" />
    <e1Detector id="e1_17516648_0" lane="17516648_0" pos="44.92" period="5.00" file="detector_data.xml" />
    <e1Detector id="e1_17516648_1" lane="17516648_1" pos="44.92" period="5.00" file="detector_data.xml" />
    <e1Detector id="e1_17550539_0" lane="17550539_0" pos="49.74" period="5.00" file="detector_data.xml" />
    <e1Detector id="e1_18702678_0" lane="18702678_0" pos="30.80" period="5.00" file="detector_data.xml" />
    <e1Detector id="e1_18702680_0" lane="18702680_0" pos="37.00" period="5.00" file="detector_data.xml" />
    <e1Detector id="e1_18702682_0" lane="18702682_0" pos="36.10" period="5.00" file="detector_data.xml" />
    <e1Detector id="e1_208416643_0" lane="208416643_0" pos="6.91" period="5.00" file="detector_data.xml" />
    <e1Detector id="e1_208416643_1" lane="208416643_1" pos="6.91" period="5.00" file="detector_data.xml" />
    <e1Detector id="e1_22941414_0" lane="22941414_0" pos="124.12" period="5.00" file="detector_data.xml" />
    <e1Detector id="e1_22941414_1" lane="22941414_1" pos="124.12" period="5.00" file="detector_data.xml" />
    <e1Detector id="e1_22941416#0_0" lane="22941416#0_0" pos="58.59" period="5.00" file="detector_data.xml" />
    <e1Detector id="e1_22941416#1_0" lane="22941416#1_0" pos="182.37" period="5.00" file="detector_data.xml" />
    <e1Detector id="e1_261187938_0" lane="261187938_0" pos="19.98" period="5.00" file="detector_data.xml" />
    <e1Detector id="e1_261187938_1" lane="261187938_1" pos="19.98" period="5.00" file="detector_data.xml" />
    <e1Detector id="e1_261187938_2" lane="261187938_2" pos="19.98" period="5.00" file="detector_data.xml" />
    <e1Detector id="e1_261187938_3" lane="261187938_3" pos="19.98" period="5.00" file="detector_data.xml" />
    <e1Detector id="e1_261187938-AddedOffRampEdge_0" lane="261187938-AddedOffRampEdge_0" pos="49.19" period="5.00" file="detector_data.xml" />
    <e1Detector id="e1_261187938-AddedOffRampEdge_1" lane="261187938-AddedOffRampEdge_1" pos="49.19" period="5.00" file="detector_data.xml" />
    <e1Detector id="e1_261187938-AddedOffRampEdge_2" lane="261187938-AddedOffRampEdge_2" pos="49.19" period="5.00" file="detector_data.xml" />
    <e1Detector id="e1_261187938-AddedOffRampEdge_3" lane="261187938-AddedOffRampEdge_3" pos="49.19" period="5.00" file="detector_data.xml" />
    <e1Detector id="e1_261583463_0" lane="261583463_0" pos="102.18" period="5.00" file="detector_data.xml" />
    <e1Detector id="e1_261583464_0" lane="261583464_0" pos="88.06" period="5.00" file="detector_data.xml" />
    <e1Detector id="e1_26378010_0" lane="26378010_0" pos="43.02" period="5.00" file="detector_data.xml" />
    <e1Detector id="e1_26380527_0" lane="26380527_0" pos="124.91" period="5.00" file="detector_data.xml" />
    <e1Detector id="e1_26380527_1" lane="26380527_1" pos="124.91" period="5.00" file="detector_data.xml" />
    <e1Detector id="e1_273755091#2_0" lane="273755091#2_0" pos="2.96" period="5.00" file="detector_data.xml" />
    <e1Detector id="e1_273755091#2_1" lane="273755091#2_1" pos="2.96" period="5.00" file="detector_data.xml" />
    <e1Detector id="e1_273755091#2_2" lane="273755091#2_2" pos="2.96" period="5.00" file="detector_data.xml" />
    <e1Detector id="e1_28001589_0" lane="28001589_0" pos="33.19" period="5.00" file="detector_data.xml" />
    <e1Detector id="e1_28001589_1" lane="28001589_1" pos="33.19" period="5.00" file="detector_data.xml" />
    <e1Detector id="e1_28458821_0" lane="28458821_0" pos="184.24" period="5.00" file="detector_data.xml" />
    <e1Detector id="e1_28458824_0" lane="28458824_0" pos="217.53" period="5.00" file="detector_data.xml" />
    <e1Detector id="e1_28458828_0" lane="28458828_0" pos="41.40" period="5.00" file="detector_data.xml" />
    <e1Detector id="e1_28458828_1" lane="28458828_1" pos="41.40" period="5.00" file="detector_data.xml" />
    <e1Detector id="e1_28458828_2" lane="28458828_2" pos="41.40" period="5.00" file="detector_data.xml" />
    <e1Detector id="e1_28458828_3" lane="28458828_3" pos="41.40" period="5.00" file="detector_data.xml" />
    <e1Detector id="e1_28458828_4" lane="28458828_4" pos="41.40" period="5.00" file="detector_data.xml" />
    <e1Detector id="e1_28458895_0" lane="28458895_0" pos="50.23" period="5.00" file="detector_data.xml" />
    <e1Detector id="e1_28458895_1" lane="28458895_1" pos="50.23" period="5.00" file="detector_data.xml" />
    <e1Detector id="e1_28458895_2" lane="28458895_2" pos="50.23" period="5.00" file="detector_data.xml" />
    <e1Detector id="e1_28458895_3" lane="28458895_3" pos="50.23" period="5.00" file="detector_data.xml" />
    <e1Detector id="e1_28531510_0" lane="28531510_0" pos="24.20" period="5.00" file="detector_data.xml" />
    <e1Detector id="e1_28531510_1" lane="28531510_1" pos="24.20" period="5.00" file="detector_data.xml" />
    <e1Detector id="e1_28531510.48_0" lane="28531510.48_0" pos="62.74" period="5.00" file="detector_data.xml" />
    <e1Detector id="e1_29038677_0" lane="29038677_0" pos="131.35" period="5.00" file="detector_data.xml" />
    <e1Detector id="e1_29332864_0" lane="29332864_0" pos="182.98" period="5.00" file="detector_data.xml" />
    <e1Detector id="e1_293596618#1-AddedOffRampEdge_0" lane="293596618#1-AddedOffRampEdge_0" pos="243.13" period="5.00" file="detector_data.xml" />
    <e1Detector id="e1_293596618#1-AddedOffRampEdge_1" lane="293596618#1-AddedOffRampEdge_1" pos="243.13" period="5.00" file="detector_data.xml" />
    <e1Detector id="e1_293596618#1-AddedOffRampEdge_2" lane="293596618#1-AddedOffRampEdge_2" pos="243.13" period="5.00" file="detector_data.xml" />
    <e1Detector id="e1_293596618#1-AddedOffRampEdge_3" lane="293596618#1-AddedOffRampEdge_3" pos="243.13" period="5.00" file="detector_data.xml" />
    <e1Detector id="e1_30414032_0" lane="30414032_0" pos="150.88" period="5.00" file="detector_data.xml" />
    <e1Detector id="e1_319144060_0" lane="319144060_0" pos="135.29" period="5.00" file="detector_data.xml" />
    <e1Detector id="e1_319144060_1" lane="319144060_1" pos="135.29" period="5.00" file="detector_data.xml" />
    <e1Detector id="e1_319144060_2" lane="319144060_2" pos="135.29" period="5.00" file="detector_data.xml" />
    <e1Detector id="e1_328393125_0" lane="328393125_0" pos="155.38" period="5.00" file="detector_data.xml" />
    <e1Detector id="e1_328393125_1" lane="328393125_1" pos="155.38" period="5.00" file="detector_data.xml" />
    <e1Detector id="e1_328393125_2" lane="328393125_2" pos="155.38" period="5.00" file="detector_data.xml" />
    <e1Detector id="e1_328393125_3" lane="328393125_3" pos="155.38" period="5.00" file="detector_data.xml" />
    <e1Detector id="e1_328393125-AddedOnRampEdge_0" lane="328393125-AddedOnRampEdge_0" pos="50.47" period="5.00" file="detector_data.xml" />
    <e1Detector id="e1_328393125-AddedOnRampEdge_1" lane="328393125-AddedOnRampEdge_1" pos="50.47" period="5.00" file="detector_data.xml" />
    <e1Detector id="e1_328393125-AddedOnRampEdge_2" lane="328393125-AddedOnRampEdge_2" pos="50.47" period="5.00" file="detector_data.xml" />
    <e1Detector id="e1_328393125-AddedOnRampEdge_3" lane="328393125-AddedOnRampEdge_3" pos="50.47" period="5.00" file="detector_data.xml" />
    <e1Detector id="e1_328393125-AddedOnRampEdge_4" lane="328393125-AddedOnRampEdge_4" pos="50.47" period="5.00" file="detector_data.xml" />
    <e1Detector id="e1_332655578_0" lane="332655578_0" pos="164.56" period="5.00" file="detector_data.xml" />
    <e1Detector id="e1_332655578_1" lane="332655578_1" pos="164.56" period="5.00" file="detector_data.xml" />
    <e1Detector id="e1_332655581_0" lane="332655581_0" pos="60.01" period="5.00" file="detector_data.xml" />
    <e1Detector id="e1_345616204#1_0" lane="345616204#1_0" pos="165.15" period="5.00" file="detector_data.xml" />
    <e1Detector id="e1_345616204#1_1" lane="345616204#1_1" pos="165.15" period="5.00" file="detector_data.xml" />
    <e1Detector id="e1_345616204#1_2" lane="345616204#1_2" pos="165.15" period="5.00" file="detector_data.xml" />
    <e1Detector id="e1_345616204#1_3" lane="345616204#1_3" pos="165.15" period="5.00" file="detector_data.xml" />
    <e1Detector id="e1_345616204#1-AddedOnRampEdge_0" lane="345616204#1-AddedOnRampEdge_0" pos="47.27" period="5.00" file="detector_data.xml" />
    <e1Detector id="e1_345616204#1-AddedOnRampEdge_1" lane="345616204#1-AddedOnRampEdge_1" pos="47.27" period="5.00" file="detector_data.xml" />
    <e1Detector id="e1_345616204#1-AddedOnRampEdge_2" lane="345616204#1-AddedOnRampEdge_2" pos="47.27" period="5.00" file="detector_data.xml" />
    <e1Detector id="e1_345616204#1-AddedOnRampEdge_3" lane="345616204#1-AddedOnRampEdge_3" pos="47.27" period="5.00" file="detector_data.xml" />
    <e1Detector id="e1_345616204#1-AddedOnRampEdge_4" lane="345616204#1-AddedOnRampEdge_4" pos="47.27" period="5.00" file="detector_data.xml" />
    <e1Detector id="e1_345616204#1.334_0" lane="345616204#1.334_0" pos="160.86" period="5.00" file="detector_data.xml" />
    <e1Detector id="e1_345616204#1.334_1" lane="345616204#1.334_1" pos="160.86" period="5.00" file="detector_data.xml" />
    <e1Detector id="e1_345616204#1.334_2" lane="345616204#1.334_2" pos="160.86" period="5.00" file="detector_data.xml" />
    <e1Detector id="e1_345616204#1.334_3" lane="345616204#1.334_3" pos="160.86" period="5.00" file="detector_data.xml" />
    <e1Detector id="e1_345616204#1.655_0" lane="345616204#1.655_0" pos="189.74" period="5.00" file="detector_data.xml" />
    <e1Detector id="e1_345616204#1.655_1" lane="345616204#1.655_1" pos="189.74" period="5.00" file="detector_data.xml" />
    <e1Detector id="e1_345616204#1.655_2" lane="345616204#1.655_2" pos="189.74" period="5.00" file="detector_data.xml" />
    <e1Detector id="e1_345616204#1.655_3" lane="345616204#1.655_3" pos="189.74" period="5.00" file="detector_data.xml" />
    <e1Detector id="e1_360361373_0" lane="360361373_0" pos="229.55" period="5.00" file="detector_data.xml" />
    <e1Detector id="e1_360361373_1" lane="360361373_1" pos="229.55" period="5.00" file="detector_data.xml" />
    <e1Detector id="e1_360361373_2" lane="360361373_2" pos="229.55" period="5.00" file="detector_data.xml" />
    <e1Detector id="e1_360361373_3" lane="360361373_3" pos="229.55" period="5.00" file="detector_data.xml" />
    <e1Detector id="e1_360361373-AddedOffRampEdge_0" lane="360361373-AddedOffRampEdge_0" pos="46.62" period="5.00" file="detector_data.xml" />
    <e1Detector id="e1_360361373-AddedOffRampEdge_1" lane="360361373-AddedOffRampEdge_1" pos="46.62" period="5.00" file="detector_data.xml" />
    <e1Detector id="e1_360361373-AddedOffRampEdge_2" lane="360361373-AddedOffRampEdge_2" pos="46.62" period="5.00" file="detector_data.xml" />
    <e1Detector id="e1_360361373-AddedOffRampEdge_3" lane="360361373-AddedOffRampEdge_3" pos="46.62" period="5.00" file="detector_data.xml" />
    <e1Detector id="e1_360361373-AddedOffRampEdge_4" lane="360361373-AddedOffRampEdge_4" pos="46.62" period="5.00" file="detector_data.xml" />
    <e1Detector id="e1_360361373-AddedOnRampEdge_0" lane="360361373-AddedOnRampEdge_0" pos="47.27" period="5.00" file="detector_data.xml" />
    <e1Detector id="e1_360361373-AddedOnRampEdge_1" lane="360361373-AddedOnRampEdge_1" pos="47.27" period="5.00" file="detector_data.xml" />
    <e1Detector id="e1_360361373-AddedOnRampEdge_2" lane="360361373-AddedOnRampEdge_2" pos="47.27" period="5.00" file="detector_data.xml" />
    <e1Detector id="e1_360361373-AddedOnRampEdge_3" lane="360361373-AddedOnRampEdge_3" pos="47.27" period="5.00" file="detector_data.xml" />
    <e1Detector id="e1_360361373-AddedOnRampEdge_4" lane="360361373-AddedOnRampEdge_4" pos="47.27" period="5.00" file="detector_data.xml" />
    <e1Detector id="e1_360361373.1498_0" lane="360361373.1498_0" pos="200.58" period="5.00" file="detector_data.xml" />
    <e1Detector id="e1_360361373.1498_1" lane="360361373.1498_1" pos="200.58" period="5.00" file="detector_data.xml" />
    <e1Detector id="e1_360361373.1498_2" lane="360361373.1498_2" pos="200.58" period="5.00" file="detector_data.xml" />
    <e1Detector id="e1_360361373.1498_3" lane="360361373.1498_3" pos="200.58" period="5.00" file="detector_data.xml" />
    <e1Detector id="e1_360361373.1899_0" lane="360361373.1899_0" pos="157.52" period="5.00" file="detector_data.xml" />
    <e1Detector id="e1_360361373.1899_1" lane="360361373.1899_1" pos="157.52" period="5.00" file="detector_data.xml" />
    <e1Detector id="e1_360361373.1899_2" lane="360361373.1899_2" pos="157.52" period="5.00" file="detector_data.xml" />
    <e1Detector id="e1_360361373.1899_3" lane="360361373.1899_3" pos="157.52" period="5.00" file="detector_data.xml" />
    <e1Detector id="e1_360361373.2215_0" lane="360361373.2215_0" pos="213.81" period="5.00" file="detector_data.xml" />
    <e1Detector id="e1_360361373.2215_1" lane="360361373.2215_1" pos="213.81" period="5.00" file="detector_data.xml" />
    <e1Detector id="e1_360361373.2215_2" lane="360361373.2215_2" pos="213.81" period="5.00" file="detector_data.xml" />
    <e1Detector id="e1_360361373.2215_3" lane="360361373.2215_3" pos="213.81" period="5.00" file="detector_data.xml" />
    <e1Detector id="e1_360361373.2643_0" lane="360361373.2643_0" pos="205.57" period="5.00" file="detector_data.xml" />
    <e1Detector id="e1_360361373.2643_1" lane="360361373.2643_1" pos="205.57" period="5.00" file="detector_data.xml" />
    <e1Detector id="e1_360361373.2643_2" lane="360361373.2643_2" pos="205.57" period="5.00" file="detector_data.xml" />
    <e1Detector id="e1_360361373.2643_3" lane="360361373.2643_3" pos="205.57" period="5.00" file="detector_data.xml" />
    <e1Detector id="e1_360361373.463_0" lane="360361373.463_0" pos="259.31" period="5.00" file="detector_data.xml" />
    <e1Detector id="e1_360361373.463_1" lane="360361373.463_1" pos="259.31" period="5.00" file="detector_data.xml" />
    <e1Detector id="e1_360361373.463_2" lane="360361373.463_2" pos="259.31" period="5.00" file="detector_data.xml" />
    <e1Detector id="e1_360361373.463_3" lane="360361373.463_3" pos="259.31" period="5.00" file="detector_data.xml" />
    <e1Detector id="e1_360361373.981_0" lane="360361373.981_0" pos="257.96" period="5.00" file="detector_data.xml" />
    <e1Detector id="e1_360361373.981_1" lane="360361373.981_1" pos="257.96" period="5.00" file="detector_data.xml" />
    <e1Detector id="e1_360361373.981_2" lane="360361373.981_2" pos="257.96" period="5.00" file="detector_data.xml" />
    <e1Detector id="e1_360361373.981_3" lane="360361373.981_3" pos="257.96" period="5.00" file="detector_data.xml" />
    <e1Detector id="e1_4074534_0" lane="4074534_0" pos="38.54" period="5.00" file="detector_data.xml" />
    <e1Detector id="e1_4074534_1" lane="4074534_1" pos="38.54" period="5.00" file="detector_data.xml" />
    <e1Detector id="e1_41517592_0" lane="41517592_0" pos="89.75" period="5.00" file="detector_data.xml" />
    <e1Detector id="e1_41517592_1" lane="41517592_1" pos="89.75" period="5.00" file="detector_data.xml" />
    <e1Detector id="e1_428960734_0" lane="428960734_0" pos="237.69" period="5.00" file="detector_data.xml" />
    <e1Detector id="e1_428960734_1" lane="428960734_1" pos="237.69" period="5.00" file="detector_data.xml" />
    <e1Detector id="e1_428960734_2" lane="428960734_2" pos="237.69" period="5.00" file="detector_data.xml" />
    <e1Detector id="e1_428960734_3" lane="428960734_3" pos="237.69" period="5.00" file="detector_data.xml" />
    <e1Detector id="e1_428960735_0" lane="428960735_0" pos="30.07" period="5.00" file="detector_data.xml" />
    <e1Detector id="e1_428960735_1" lane="428960735_1" pos="30.07" period="5.00" file="detector_data.xml" />
    <e1Detector id="e1_428960735_2" lane="428960735_2" pos="30.07" period="5.00" file="detector_data.xml" />
    <e1Detector id="e1_428960735_3" lane="428960735_3" pos="30.07" period="5.00" file="detector_data.xml" />
    <e1Detector id="e1_429432523_0" lane="429432523_0" pos="55.40" period="5.00" file="detector_data.xml" />
    <e1Detector id="e1_429432523_1" lane="429432523_1" pos="55.40" period="5.00" file="detector_data.xml" />
    <e1Detector id="e1_429432523_2" lane="429432523_2" pos="55.40" period="5.00" file="detector_data.xml" />
    <e1Detector id="e1_429432523_3" lane="429432523_3" pos="55.40" period="5.00" file="detector_data.xml" />
    <e1Detector id="e1_429432524_0" lane="429432524_0" pos="96.36" period="5.00" file="detector_data.xml" />
    <e1Detector id="e1_429432524_1" lane="429432524_1" pos="96.36" period="5.00" file="detector_data.xml" />
    <e1Detector id="e1_429432524_2" lane="429432524_2" pos="96.36" period="5.00" file="detector_data.xml" />
    <e1Detector id="e1_429432526_0" lane="429432526_0" pos="232.72" period="5.00" file="detector_data.xml" />
    <e1Detector id="e1_429432526_1" lane="429432526_1" pos="232.72" period="5.00" file="detector_data.xml" />
    <e1Detector id="e1_429432925_0" lane="429432925_0" pos="1.32" period="5.00" file="detector_data.xml" />
    <e1Detector id="e1_429432925_1" lane="429432925_1" pos="1.32" period="5.00" file="detector_data.xml" />
    <e1Detector id="e1_429432925_2" lane="429432925_2" pos="1.32" period="5.00" file="detector_data.xml" />
    <e1Detector id="e1_429432925_3" lane="429432925_3" pos="1.32" period="5.00" file="detector_data.xml" />
    <e1Detector id="e1_431199180_0" lane="431199180_0" pos="31.77" period="5.00" file="detector_data.xml" />
    <e1Detector id="e1_431199180_1" lane="431199180_1" pos="31.77" period="5.00" file="detector_data.xml" />
    <e1Detector id="e1_431199180_2" lane="431199180_2" pos="31.77" period="5.00" file="detector_data.xml" />
    <e1Detector id="e1_431199180_3" lane="431199180_3" pos="31.77" period="5.00" file="detector_data.xml" />
    <e1Detector id="e1_4402237_0" lane="4402237_0" pos="34.34" period="5.00" file="detector_data.xml" />
    <e1Detector id="e1_4402237_1" lane="4402237_1" pos="34.34" period="5.00" file="detector_data.xml" />
    <e1Detector id="e1_4402237_2" lane="4402237_2" pos="34.34" period="5.00" file="detector_data.xml" />
    <e1Detector id="e1_4402297_0" lane="4402297_0" pos="181.87" period="5.00" file="detector_data.xml" />
    <e1Detector id="e1_4402297_1" lane="4402297_1" pos="181.87" period="5.00" file="detector_data.xml" />
    <e1Detector id="e1_4402297_2" lane="4402297_2" pos="181.87" period="5.00" file="detector_data.xml" />
    <e1Detector id="e1_4404096_0" lane="4404096_0" pos="112.03" period="5.00" file="detector_data.xml" />
    <e1Detector id="e1_4404096_1" lane="4404096_1" pos="112.03" period="5.00" file="detector_data.xml" />
    <e1Detector id="e1_4404096_2" lane="4404096_2" pos="112.03" period="5.00" file="detector_data.xml" />
    <e1Detector id="e1_4414080#0_0" lane="4414080#0_0" pos="126.03" period="5.00" file="detector_data.xml" />
    <e1Detector id="e1_4414080#0_1" lane="4414080#0_1" pos="126.03" period="5.00" file="detector_data.xml" />
    <e1Detector id="e1_4414080#0_2" lane="4414080#0_2" pos="126.03" period="5.00" file="detector_data.xml" />
    <e1Detector id="e1_4414080#0_3" lane="4414080#0_3" pos="126.03" period="5.00" file="detector_data.xml" />
    <e1Detector id="e1_4414080#0_4" lane="4414080#0_4" pos="126.03" period="5.00" file="detector_data.xml" />
    <e1Detector id="e1_4414080#0.187_0" lane="4414080#0.187_0" pos="237.24" period="5.00" file="detector_data.xml" />
    <e1Detector id="e1_4414080#0.187_1" lane="4414080#0.187_1" pos="237.24" period="5.00" file="detector_data.xml" />
    <e1Detector id="e1_4414080#0.187_2" lane="4414080#0.187_2" pos="237.24" period="5.00" file="detector_data.xml" />
    <e1Detector id="e1_4414080#0.756_0" lane="4414080#0.756_0" pos="25.18" period="5.00" file="detector_data.xml" />
    <e1Detector id="e1_4414080#0.756_1" lane="4414080#0.756_1" pos="25.18" period="5.00" file="detector_data.xml" />
    <e1Detector id="e1_4414080#0.756_2" lane="4414080#0.756_2" pos="25.18" period="5.00" file="detector_data.xml" />
    <e1Detector id="e1_4414080#0.756_3" lane="4414080#0.756_3" pos="25.18" period="5.00" file="detector_data.xml" />
    <e1Detector id="e1_4414080#0.756.47_0" lane="4414080#0.756.47_0" pos="27.78" period="5.00" file="detector_data.xml" />
    <e1Detector id="e1_4414080#0.756.47_1" lane="4414080#0.756.47_1" pos="27.78" period="5.00" file="detector_data.xml" />
    <e1Detector id="e1_4414080#0.756.47_2" lane="4414080#0.756.47_2" pos="27.78" period="5.00" file="detector_data.xml" />
    <e1Detector id="e1_4414080#1-AddedOnRampEdge_0" lane="4414080#1-AddedOnRampEdge_0" pos="171.57" period="5.00" file="detector_data.xml" />
    <e1Detector id="e1_4414080#1-AddedOnRampEdge_1" lane="4414080#1-AddedOnRampEdge_1" pos="171.57" period="5.00" file="detector_data.xml" />
    <e1Detector id="e1_4414080#1-AddedOnRampEdge_2" lane="4414080#1-AddedOnRampEdge_2" pos="171.57" period="5.00" file="detector_data.xml" />
    <e1Detector id="e1_4414080#1-AddedOnRampEdge_3" lane="4414080#1-AddedOnRampEdge_3" pos="171.57" period="5.00" file="detector_data.xml" />
    <e1Detector id="e1_4414080#1-AddedOnRampEdge.343_0" lane="4414080#1-AddedOnRampEdge.343_0" pos="165.87" period="5.00" file="detector_data.xml" />
    <e1Detector id="e1_4414080#1-AddedOnRampEdge.343_1" lane="4414080#1-AddedOnRampEdge.343_1" pos="165.87" period="5.00" file="detector_data.xml" />
    <e1Detector id="e1_4414080#1-AddedOnRampEdge.343_2" lane="4414080#1-AddedOnRampEdge.343_2" pos="165.87" period="5.00" file="detector_data.xml" />
    <e1Detector id="e1_4414080#1-AddedOnRampEdge.343_3" lane="4414080#1-AddedOnRampEdge.343_3" pos="165.87" period="5.00" file="detector_data.xml" />
    <e1Detector id="e1_4414080#1-AddedOnRampEdge.675_0" lane="4414080#1-AddedOnRampEdge.675_0" pos="117.72" period="5.00" file="detector_data.xml" />
    <e1Detector id="e1_4414080#1-AddedOnRampEdge.675_1" lane="4414080#1-AddedOnRampEdge.675_1" pos="117.72" period="5.00" file="detector_data.xml" />