<additional xmlns:xsi="http://www.w3.org/2001/XMLSchema-instance" xsi:noNamespaceSchemaLocation="http://sumo.dlr.de/xsd/additional_file.xsd">
    <edgeData id="ed" freq="300" file="/home/manity/Quick_adap/quick_adap_to_incidents/Experiment/Results/debug_test2.xml" />
</additional>