<routes>
    <vType  id="car"
            vClass="passenger" length="5" accel="3.5" decel="2.2"
            sigma="1.0" maxSpeed="10"/>
    
    <vType  id="ev"
            vClass="emergency" length="7" accel="5.5" decel="2.2" sigma="1.0"
            maxSpeed="20" guiShape="emergency" speedFactor="2.0"
            minGapLat="0.2"/>

    <route id="route_0" edges="E0 E1 E2 E3 E4 E5 E6"/>

    <flow id="carflow" type="car" beg="0" end="0" number="50" from="E0" to="E6"/>

</routes>