<additional xmlns:xsi="http://www.w3.org/2001/XMLSchema-instance" xsi:noNamespaceSchemaLocation="http://sumo.dlr.de/xsd/additional_file.xsd">
    <e1Detector id="e1_-100654685#0_0" lane="-100654685#0_0" pos="43.98" period="300.00" file="detector_data.xml" />
    <e1Detector id="e1_-100654685#1_0" lane="-100654685#1_0" pos="9.82" period="300.00" file="detector_data.xml" />
    <e1Detector id="e1_-100654685#2_0" lane="-100654685#2_0" pos="5.67" period="300.00" file="detector_data.xml" />
    <e1Detector id="e1_-100654686_0" lane="-100654686_0" pos="24.30" period="300.00" file="detector_data.xml" />
    <e1Detector id="e1_-100654687_0" lane="-100654687_0" pos="18.89" period="300.00" file="detector_data.xml" />
    <e1Detector id="e1_-102694945_0" lane="-102694945_0" pos="74.14" period="300.00" file="detector_data.xml" />
    <e1Detector id="e1_-103289109_0" lane="-103289109_0" pos="18.64" period="300.00" file="detector_data.xml" />
    <e1Detector id="e1_-10575463#3_0" lane="-10575463#3_0" pos="114.04" period="300.00" file="detector_data.xml" />
    <e1Detector id="e1_-10575468#4_0" lane="-10575468#4_0" pos="70.89" period="300.00" file="detector_data.xml" />
    <e1Detector id="e1_-10575469#1_0" lane="-10575469#1_0" pos="61.62" period="300.00" file="detector_data.xml" />
    <e1Detector id="e1_-10575471#0_0" lane="-10575471#0_0" pos="30.73" period="300.00" file="detector_data.xml" />
    <e1Detector id="e1_-10575471#1_0" lane="-10575471#1_0" pos="33.77" period="300.00" file="detector_data.xml" />
    <e1Detector id="e1_-10575471#2_0" lane="-10575471#2_0" pos="36.42" period="300.00" file="detector_data.xml" />
    <e1Detector id="e1_-10575476#3_0" lane="-10575476#3_0" pos="53.23" period="300.00" file="detector_data.xml" />
    <e1Detector id="e1_-10575478#5_0" lane="-10575478#5_0" pos="120.86" period="300.00" file="detector_data.xml" />
    <e1Detector id="e1_-10575479#0_0" lane="-10575479#0_0" pos="5.13" period="300.00" file="detector_data.xml" />
    <e1Detector id="e1_-10575479#1_0" lane="-10575479#1_0" pos="18.34" period="300.00" file="detector_data.xml" />
    <e1Detector id="e1_-10575480#0_0" lane="-10575480#0_0" pos="33.79" period="300.00" file="detector_data.xml" />
    <e1Detector id="e1_-10575480#2_0" lane="-10575480#2_0" pos="33.27" period="300.00" file="detector_data.xml" />
    <e1Detector id="e1_-10575482_0" lane="-10575482_0" pos="45.91" period="300.00" file="detector_data.xml" />
    <e1Detector id="e1_-10577136_0" lane="-10577136_0" pos="0.10" period="300.00" file="detector_data.xml" />
    <e1Detector id="e1_-10577136_1" lane="-10577136_1" pos="0.10" period="300.00" file="detector_data.xml" />
    <e1Detector id="e1_-107851480_0" lane="-107851480_0" pos="39.95" period="300.00" file="detector_data.xml" />
    <e1Detector id="e1_-10861167#1_0" lane="-10861167#1_0" pos="27.09" period="300.00" file="detector_data.xml" />
    <e1Detector id="e1_-10861167#4_0" lane="-10861167#4_0" pos="34.26" period="300.00" file="detector_data.xml" />
    <e1Detector id="e1_-10892466#2_0" lane="-10892466#2_0" pos="33.35" period="300.00" file="detector_data.xml" />
    <e1Detector id="e1_-10892466#5_0" lane="-10892466#5_0" pos="9.06" period="300.00" file="detector_data.xml" />
    <e1Detector id="e1_-10892467#0_0" lane="-10892467#0_0" pos="39.13" period="300.00" file="detector_data.xml" />
    <e1Detector id="e1_-10892467#1_0" lane="-10892467#1_0" pos="2.47" period="300.00" file="detector_data.xml" />
    <e1Detector id="e1_-10892468#1_0" lane="-10892468#1_0" pos="31.08" period="300.00" file="detector_data.xml" />
    <e1Detector id="e1_-10893184#0_0" lane="-10893184#0_0" pos="46.12" period="300.00" file="detector_data.xml" />
    <e1Detector id="e1_-10893184#2_0" lane="-10893184#2_0" pos="34.09" period="300.00" file="detector_data.xml" />
    <e1Detector id="e1_-109527590_0" lane="-109527590_0" pos="0.10" period="300.00" file="detector_data.xml" />
    <e1Detector id="e1_-110223240#1_0" lane="-110223240#1_0" pos="29.00" period="300.00" file="detector_data.xml" />
    <e1Detector id="e1_-110403089#1_0" lane="-110403089#1_0" pos="73.33" period="300.00" file="detector_data.xml" />
    <e1Detector id="e1_-110403094#0_0" lane="-110403094#0_0" pos="12.97" period="300.00" file="detector_data.xml" />
    <e1Detector id="e1_-110403094#1_0" lane="-110403094#1_0" pos="13.15" period="300.00" file="detector_data.xml" />
    <e1Detector id="e1_-110403096_0" lane="-110403096_0" pos="9.22" period="300.00" file="detector_data.xml" />
    <e1Detector id="e1_-110403097_0" lane="-110403097_0" pos="36.91" period="300.00" file="detector_data.xml" />
    <e1Detector id="e1_-110403100_0" lane="-110403100_0" pos="64.11" period="300.00" file="detector_data.xml" />
    <e1Detector id="e1_-110403205#2_0" lane="-110403205#2_0" pos="88.25" period="300.00" file="detector_data.xml" />
    <e1Detector id="e1_-110407380#1_0" lane="-110407380#1_0" pos="124.54" period="300.00" file="detector_data.xml" />
    <e1Detector id="e1_-110445434_0" lane="-110445434_0" pos="0.10" period="300.00" file="detector_data.xml" />
    <e1Detector id="e1_-110445434_1" lane="-110445434_1" pos="0.10" period="300.00" file="detector_data.xml" />
    <e1Detector id="e1_-110445437_0" lane="-110445437_0" pos="13.07" period="300.00" file="detector_data.xml" />
    <e1Detector id="e1_-110445437_1" lane="-110445437_1" pos="13.07" period="300.00" file="detector_data.xml" />
    <e1Detector id="e1_-110545289#1_0" lane="-110545289#1_0" pos="91.17" period="300.00" file="detector_data.xml" />
    <e1Detector id="e1_-110545289#2_0" lane="-110545289#2_0" pos="27.86" period="300.00" file="detector_data.xml" />
    <e1Detector id="e1_-110545289#3_0" lane="-110545289#3_0" pos="31.09" period="300.00" file="detector_data.xml" />
    <e1Detector id="e1_-111286353#1_0" lane="-111286353#1_0" pos="94.49" period="300.00" file="detector_data.xml" />
    <e1Detector id="e1_-111286353#6_0" lane="-111286353#6_0" pos="111.08" period="300.00" file="detector_data.xml" />
    <e1Detector id="e1_-111602087_0" lane="-111602087_0" pos="41.85" period="300.00" file="detector_data.xml" />
    <e1Detector id="e1_-111602369#0_0" lane="-111602369#0_0" pos="46.11" period="300.00" file="detector_data.xml" />
    <e1Detector id="e1_-111602369#1_0" lane="-111602369#1_0" pos="25.38" period="300.00" file="detector_data.xml" />
    <e1Detector id="e1_-111746915_0" lane="-111746915_0" pos="24.92" period="300.00" file="detector_data.xml" />
    <e1Detector id="e1_-111746916_0" lane="-111746916_0" pos="84.52" period="300.00" file="detector_data.xml" />
    <e1Detector id="e1_-111746918_0" lane="-111746918_0" pos="190.84" period="300.00" file="detector_data.xml" />
    <e1Detector id="e1_-112410779#0_0" lane="-112410779#0_0" pos="32.13" period="300.00" file="detector_data.xml" />
    <e1Detector id="e1_-112410779#1_0" lane="-112410779#1_0" pos="27.18" period="300.00" file="detector_data.xml" />
    <e1Detector id="e1_-113549155#0_0" lane="-113549155#0_0" pos="10.30" period="300.00" file="detector_data.xml" />
    <e1Detector id="e1_-113549155#1_0" lane="-113549155#1_0" pos="8.95" period="300.00" file="detector_data.xml" />
    <e1Detector id="e1_-113549155#2_0" lane="-113549155#2_0" pos="4.08" period="300.00" file="detector_data.xml" />
    <e1Detector id="e1_-113552215_0" lane="-113552215_0" pos="11.38" period="300.00" file="detector_data.xml" />
    <e1Detector id="e1_-113552216#1_0" lane="-113552216#1_0" pos="36.73" period="300.00" file="detector_data.xml" />
    <e1Detector id="e1_-113552216#4_0" lane="-113552216#4_0" pos="21.43" period="300.00" file="detector_data.xml" />
    <e1Detector id="e1_-114208220#0_0" lane="-114208220#0_0" pos="8.63" period="300.00" file="detector_data.xml" />
    <e1Detector id="e1_-114208220#2_0" lane="-114208220#2_0" pos="35.59" period="300.00" file="detector_data.xml" />
    <e1Detector id="e1_-114208221#2_0" lane="-114208221#2_0" pos="24.60" period="300.00" file="detector_data.xml" />
    <e1Detector id="e1_-114208222#0_0" lane="-114208222#0_0" pos="16.35" period="300.00" file="detector_data.xml" />
    <e1Detector id="e1_-114208222#2_0" lane="-114208222#2_0" pos="37.33" period="300.00" file="detector_data.xml" />
    <e1Detector id="e1_-114208262#2_0" lane="-114208262#2_0" pos="52.74" period="300.00" file="detector_data.xml" />
    <e1Detector id="e1_-114277935#1_0" lane="-114277935#1_0" pos="61.72" period="300.00" file="detector_data.xml" />
    <e1Detector id="e1_-115656105_0" lane="-115656105_0" pos="8.37" period="300.00" file="detector_data.xml" />
    <e1Detector id="e1_-115656107_0" lane="-115656107_0" pos="8.74" period="300.00" file="detector_data.xml" />
    <e1Detector id="e1_-116689248#1_0" lane="-116689248#1_0" pos="29.91" period="300.00" file="detector_data.xml" />
    <e1Detector id="e1_-116689248#2_0" lane="-116689248#2_0" pos="7.71" period="300.00" file="detector_data.xml" />
    <e1Detector id="e1_-116689248#3_0" lane="-116689248#3_0" pos="15.12" period="300.00" file="detector_data.xml" />
    <e1Detector id="e1_-116689248#4_0" lane="-116689248#4_0" pos="34.08" period="300.00" file="detector_data.xml" />
    <e1Detector id="e1_-11685016#2_0" lane="-11685016#2_0" pos="147.58" period="300.00" file="detector_data.xml" />
    <e1Detector id="e1_-11685019#2_0" lane="-11685019#2_0" pos="137.03" period="300.00" file="detector_data.xml" />
    <e1Detector id="e1_-11685019#3_0" lane="-11685019#3_0" pos="18.45" period="300.00" file="detector_data.xml" />
    <e1Detector id="e1_-11685178#2_0" lane="-11685178#2_0" pos="18.73" period="300.00" file="detector_data.xml" />
    <e1Detector id="e1_-11685178#4_0" lane="-11685178#4_0" pos="37.67" period="300.00" file="detector_data.xml" />
    <e1Detector id="e1_-117401207#1_0" lane="-117401207#1_0" pos="23.85" period="300.00" file="detector_data.xml" />
    <e1Detector id="e1_-119860728#2_0" lane="-119860728#2_0" pos="149.81" period="300.00" file="detector_data.xml" />
    <e1Detector id="e1_-121166756#0_0" lane="-121166756#0_0" pos="39.87" period="300.00" file="detector_data.xml" />
    <e1Detector id="e1_-121249650#2_0" lane="-121249650#2_0" pos="105.17" period="300.00" file="detector_data.xml" />
    <e1Detector id="e1_-121249650#4_0" lane="-121249650#4_0" pos="11.44" period="300.00" file="detector_data.xml" />
    <e1Detector id="e1_-12341213_0" lane="-12341213_0" pos="19.89" period="300.00" file="detector_data.xml" />
    <e1Detector id="e1_-12341215#1_0" lane="-12341215#1_0" pos="70.78" period="300.00" file="detector_data.xml" />
    <e1Detector id="e1_-12341215#2_0" lane="-12341215#2_0" pos="14.44" period="300.00" file="detector_data.xml" />
    <e1Detector id="e1_-12341216_0" lane="-12341216_0" pos="26.76" period="300.00" file="detector_data.xml" />
    <e1Detector id="e1_-12341218#11_0" lane="-12341218#11_0" pos="186.37" period="300.00" file="detector_data.xml" />
    <e1Detector id="e1_-12341232#1_0" lane="-12341232#1_0" pos="21.50" period="300.00" file="detector_data.xml" />
    <e1Detector id="e1_-12341232#3_0" lane="-12341232#3_0" pos="23.43" period="300.00" file="detector_data.xml" />
    <e1Detector id="e1_-12341234#3_0" lane="-12341234#3_0" pos="62.89" period="300.00" file="detector_data.xml" />
    <e1Detector id="e1_-12341242#1_0" lane="-12341242#1_0" pos="68.12" period="300.00" file="detector_data.xml" />
    <e1Detector id="e1_-12341245#2_0" lane="-12341245#2_0" pos="1.35" period="300.00" file="detector_data.xml" />
    <e1Detector id="e1_-12341245#2_1" lane="-12341245#2_1" pos="1.35" period="300.00" file="detector_data.xml" />
    <e1Detector id="e1_-12341247#4_0" lane="-12341247#4_0" pos="63.66" period="300.00" file="detector_data.xml" />
    <e1Detector id="e1_-125813654#0_0" lane="-125813654#0_0" pos="26.99" period="300.00" file="detector_data.xml" />
    <e1Detector id="e1_-125813654#1_0" lane="-125813654#1_0" pos="62.87" period="300.00" file="detector_data.xml" />
    <e1Detector id="e1_-125813654#3_0" lane="-125813654#3_0" pos="30.95" period="300.00" file="detector_data.xml" />
    <e1Detector id="e1_-125813654#6_0" lane="-125813654#6_0" pos="114.44" period="300.00" file="detector_data.xml" />
    <e1Detector id="e1_-125813655#1_0" lane="-125813655#1_0" pos="64.89" period="300.00" file="detector_data.xml" />
    <e1Detector id="e1_-125813720_0" lane="-125813720_0" pos="48.83" period="300.00" file="detector_data.xml" />
    <e1Detector id="e1_-125813810_0" lane="-125813810_0" pos="14.39" period="300.00" file="detector_data.xml" />
    <e1Detector id="e1_-125813811_0" lane="-125813811_0" pos="14.23" period="300.00" file="detector_data.xml" />
    <e1Detector id="e1_-125814165#0_0" lane="-125814165#0_0" pos="47.70" period="300.00" file="detector_data.xml" />
    <e1Detector id="e1_-125814165#1_0" lane="-125814165#1_0" pos="19.59" period="300.00" file="detector_data.xml" />
    <e1Detector id="e1_-125814370_0" lane="-125814370_0" pos="47.25" period="300.00" file="detector_data.xml" />
    <e1Detector id="e1_-125814461#0_0" lane="-125814461#0_0" pos="11.42" period="300.00" file="detector_data.xml" />
    <e1Detector id="e1_-125814491#0_0" lane="-125814491#0_0" pos="10.57" period="300.00" file="detector_data.xml" />
    <e1Detector id="e1_-125814598_0" lane="-125814598_0" pos="13.70" period="300.00" file="detector_data.xml" />
    <e1Detector id="e1_-125814598_1" lane="-125814598_1" pos="13.70" period="300.00" file="detector_data.xml" />
    <e1Detector id="e1_-125814738#1_0" lane="-125814738#1_0" pos="29.52" period="300.00" file="detector_data.xml" />
    <e1Detector id="e1_-125814738#2_0" lane="-125814738#2_0" pos="11.99" period="300.00" file="detector_data.xml" />
    <e1Detector id="e1_-125814846_0" lane="-125814846_0" pos="57.88" period="300.00" file="detector_data.xml" />
    <e1Detector id="e1_-125872847#11_0" lane="-125872847#11_0" pos="96.27" period="300.00" file="detector_data.xml" />
    <e1Detector id="e1_-125873172#1_0" lane="-125873172#1_0" pos="26.04" period="300.00" file="detector_data.xml" />
    <e1Detector id="e1_-125873172#1_1" lane="-125873172#1_1" pos="26.04" period="300.00" file="detector_data.xml" />
    <e1Detector id="e1_-125873172#13_0" lane="-125873172#13_0" pos="65.09" period="300.00" file="detector_data.xml" />
    <e1Detector id="e1_-125873172#13_1" lane="-125873172#13_1" pos="65.09" period="300.00" file="detector_data.xml" />
    <e1Detector id="e1_-125873172#16_0" lane="-125873172#16_0" pos="63.77" period="300.00" file="detector_data.xml" />
    <e1Detector id="e1_-125873172#16_1" lane="-125873172#16_1" pos="63.77" period="300.00" file="detector_data.xml" />
    <e1Detector id="e1_-125873172#4_0" lane="-125873172#4_0" pos="26.84" period="300.00" file="detector_data.xml" />
    <e1Detector id="e1_-125873172#4_1" lane="-125873172#4_1" pos="26.84" period="300.00" file="detector_data.xml" />
    <e1Detector id="e1_-125873172#5_0" lane="-125873172#5_0" pos="21.08" period="300.00" file="detector_data.xml" />
    <e1Detector id="e1_-125873172#5_1" lane="-125873172#5_1" pos="21.08" period="300.00" file="detector_data.xml" />
    <e1Detector id="e1_-125880830#1_0" lane="-125880830#1_0" pos="47.13" period="300.00" file="detector_data.xml" />
    <e1Detector id="e1_-125880830#2_0" lane="-125880830#2_0" pos="26.25" period="300.00" file="detector_data.xml" />
    <e1Detector id="e1_-125880830#3_0" lane="-125880830#3_0" pos="14.53" period="300.00" file="detector_data.xml" />
    <e1Detector id="e1_-125880830#4_0" lane="-125880830#4_0" pos="7.51" period="300.00" file="detector_data.xml" />
    <e1Detector id="e1_-125880830#6_0" lane="-125880830#6_0" pos="32.82" period="300.00" file="detector_data.xml" />
    <e1Detector id="e1_-125880830#7_0" lane="-125880830#7_0" pos="21.13" period="300.00" file="detector_data.xml" />
    <e1Detector id="e1_-125880830#9_0" lane="-125880830#9_0" pos="20.29" period="300.00" file="detector_data.xml" />
    <e1Detector id="e1_-125886704_0" lane="-125886704_0" pos="17.05" period="300.00" file="detector_data.xml" />
    <e1Detector id="e1_-125886705#1_0" lane="-125886705#1_0" pos="75.75" period="300.00" file="detector_data.xml" />
    <e1Detector id="e1_-127200696_0" lane="-127200696_0" pos="74.84" period="300.00" file="detector_data.xml" />
    <e1Detector id="e1_-127219363_0" lane="-127219363_0" pos="117.57" period="300.00" file="detector_data.xml" />
    <e1Detector id="e1_-127219366_0" lane="-127219366_0" pos="14.14" period="300.00" file="detector_data.xml" />
    <e1Detector id="e1_-127220738_0" lane="-127220738_0" pos="13.54" period="300.00" file="detector_data.xml" />
    <e1Detector id="e1_-127359208#0_0" lane="-127359208#0_0" pos="10.21" period="300.00" file="detector_data.xml" />
    <e1Detector id="e1_-127359208#0_1" lane="-127359208#0_1" pos="10.21" period="300.00" file="detector_data.xml" />
    <e1Detector id="e1_-127359208#10_0" lane="-127359208#10_0" pos="88.72" period="300.00" file="detector_data.xml" />
    <e1Detector id="e1_-127359208#10_1" lane="-127359208#10_1" pos="88.72" period="300.00" file="detector_data.xml" />
    <e1Detector id="e1_-127359208#2_0" lane="-127359208#2_0" pos="18.34" period="300.00" file="detector_data.xml" />
    <e1Detector id="e1_-127359208#2_1" lane="-127359208#2_1" pos="18.34" period="300.00" file="detector_data.xml" />
    <e1Detector id="e1_-127359208#3_0" lane="-127359208#3_0" pos="30.88" period="300.00" file="detector_data.xml" />
    <e1Detector id="e1_-127359208#3_1" lane="-127359208#3_1" pos="30.88" period="300.00" file="detector_data.xml" />
    <e1Detector id="e1_-127359210#0_0" lane="-127359210#0_0" pos="27.23" period="300.00" file="detector_data.xml" />
    <e1Detector id="e1_-127359210#1_0" lane="-127359210#1_0" pos="21.32" period="300.00" file="detector_data.xml" />
    <e1Detector id="e1_-127359210#2_0" lane="-127359210#2_0" pos="24.57" period="300.00" file="detector_data.xml" />
    <e1Detector id="e1_-127359210#3_0" lane="-127359210#3_0" pos="56.57" period="300.00" file="detector_data.xml" />
    <e1Detector id="e1_-127359210#4_0" lane="-127359210#4_0" pos="24.03" period="300.00" file="detector_data.xml" />
    <e1Detector id="e1_-128005879#0_0" lane="-128005879#0_0" pos="25.18" period="300.00" file="detector_data.xml" />
    <e1Detector id="e1_-128005879#2_0" lane="-128005879#2_0" pos="26.52" period="300.00" file="detector_data.xml" />
    <e1Detector id="e1_-128005880_0" lane="-128005880_0" pos="11.46" period="300.00" file="detector_data.xml" />
    <e1Detector id="e1_-128396774#0_0" lane="-128396774#0_0" pos="34.16" period="300.00" file="detector_data.xml" />
    <e1Detector id="e1_-128396774#3_0" lane="-128396774#3_0" pos="22.05" period="300.00" file="detector_data.xml" />
    <e1Detector id="e1_-128396774#5_0" lane="-128396774#5_0" pos="16.29" period="300.00" file="detector_data.xml" />
    <e1Detector id="e1_-128396774#6_0" lane="-128396774#6_0" pos="35.13" period="300.00" file="detector_data.xml" />
    <e1Detector id="e1_-128396774#7_0" lane="-128396774#7_0" pos="0.10" period="300.00" file="detector_data.xml" />
    <e1Detector id="e1_-128396775_0" lane="-128396775_0" pos="13.07" period="300.00" file="detector_data.xml" />
    <e1Detector id="e1_-128396776#0_0" lane="-128396776#0_0" pos="27.48" period="300.00" file="detector_data.xml" />
    <e1Detector id="e1_-128396776#2_0" lane="-128396776#2_0" pos="15.55" period="300.00" file="detector_data.xml" />
    <e1Detector id="e1_-128396777#1_0" lane="-128396777#1_0" pos="79.24" period="300.00" file="detector_data.xml" />
    <e1Detector id="e1_-128450676#2_0" lane="-128450676#2_0" pos="58.27" period="300.00" file="detector_data.xml" />
    <e1Detector id="e1_-128450676#3_0" lane="-128450676#3_0" pos="47.66" period="300.00" file="detector_data.xml" />
    <e1Detector id="e1_-128521421#1_0" lane="-128521421#1_0" pos="104.08" period="300.00" file="detector_data.xml" />
    <e1Detector id="e1_-128521422_0" lane="-128521422_0" pos="50.89" period="300.00" file="detector_data.xml" />
    <e1Detector id="e1_-128521557_0" lane="-128521557_0" pos="0.10" period="300.00" file="detector_data.xml" />
    <e1Detector id="e1_-128521557_1" lane="-128521557_1" pos="0.10" period="300.00" file="detector_data.xml" />
    <e1Detector id="e1_-128521563#0_0" lane="-128521563#0_0" pos="89.97" period="300.00" file="detector_data.xml" />
    <e1Detector id="e1_-128521563#1_0" lane="-128521563#1_0" pos="45.05" period="300.00" file="detector_data.xml" />
    <e1Detector id="e1_-128521564_0" lane="-128521564_0" pos="52.48" period="300.00" file="detector_data.xml" />
    <e1Detector id="e1_-128521564_1" lane="-128521564_1" pos="52.48" period="300.00" file="detector_data.xml" />
    <e1Detector id="e1_-128521573#0_0" lane="-128521573#0_0" pos="26.57" period="300.00" file="detector_data.xml" />
    <e1Detector id="e1_-128521573#1_0" lane="-128521573#1_0" pos="117.07" period="300.00" file="detector_data.xml" />
    <e1Detector id="e1_-12854625#1_0" lane="-12854625#1_0" pos="6.03" period="300.00" file="detector_data.xml" />
    <e1Detector id="e1_-12854625#1_1" lane="-12854625#1_1" pos="6.03" period="300.00" file="detector_data.xml" />
    <e1Detector id="e1_-12854625#3_0" lane="-12854625#3_0" pos="19.89" period="300.00" file="detector_data.xml" />
    <e1Detector id="e1_-12854625#3_1" lane="-12854625#3_1" pos="19.89" period="300.00" file="detector_data.xml" />
    <e1Detector id="e1_-128570949#1_0" lane="-128570949#1_0" pos="13.46" period="300.00" file="detector_data.xml" />
    <e1Detector id="e1_-128571079#1_0" lane="-128571079#1_0" pos="31.27" period="300.00" file="detector_data.xml" />
    <e1Detector id="e1_-128571079#1_1" lane="-128571079#1_1" pos="31.27" period="300.00" file="detector_data.xml" />
    <e1Detector id="e1_-128676689#0_0" lane="-128676689#0_0" pos="11.47" period="300.00" file="detector_data.xml" />
    <e1Detector id="e1_-128676689#1_0" lane="-128676689#1_0" pos="30.82" period="300.00" file="detector_data.xml" />
    <e1Detector id="e1_-128676689#2_0" lane="-128676689#2_0" pos="26.68" period="300.00" file="detector_data.xml" />
    <e1Detector id="e1_-128676689#3_0" lane="-128676689#3_0" pos="11.28" period="300.00" file="detector_data.xml" />
    <e1Detector id="e1_-128676689#4_0" lane="-128676689#4_0" pos="23.82" period="300.00" file="detector_data.xml" />
    <e1Detector id="e1_-128676689#5_0" lane="-128676689#5_0" pos="23.85" period="300.00" file="detector_data.xml" />
    <e1Detector id="e1_-128680991#2_0" lane="-128680991#2_0" pos="97.46" period="300.00" file="detector_data.xml" />
    <e1Detector id="e1_-128680991#5_0" lane="-128680991#5_0" pos="17.60" period="300.00" file="detector_data.xml" />
    <e1Detector id="e1_-128775158#1_0" lane="-128775158#1_0" pos="6.62" period="300.00" file="detector_data.xml" />
    <e1Detector id="e1_-128775159#3_0" lane="-128775159#3_0" pos="70.95" period="300.00" file="detector_data.xml" />
    <e1Detector id="e1_-128775883#0_0" lane="-128775883#0_0" pos="425.82" period="300.00" file="detector_data.xml" />
    <e1Detector id="e1_-128775883#4_0" lane="-128775883#4_0" pos="93.24" period="300.00" file="detector_data.xml" />
    <e1Detector id="e1_-128911064#4_0" lane="-128911064#4_0" pos="41.06" period="300.00" file="detector_data.xml" />
    <e1Detector id="e1_-128946815#1_0" lane="-128946815#1_0" pos="21.22" period="300.00" file="detector_data.xml" />
    <e1Detector id="e1_-128946815#10_0" lane="-128946815#10_0" pos="28.54" period="300.00" file="detector_data.xml" />
    <e1Detector id="e1_-128946815#2_0" lane="-128946815#2_0" pos="32.70" period="300.00" file="detector_data.xml" />
    <e1Detector id="e1_-128946815#4_0" lane="-128946815#4_0" pos="26.76" period="300.00" file="detector_data.xml" />
    <e1Detector id="e1_-128946815#7_0" lane="-128946815#7_0" pos="18.77" period="300.00" file="detector_data.xml" />
    <e1Detector id="e1_-129068838_0" lane="-129068838_0" pos="17.21" period="300.00" file="detector_data.xml" />
    <e1Detector id="e1_-129068838_1" lane="-129068838_1" pos="17.21" period="300.00" file="detector_data.xml" />
    <e1Detector id="e1_-129068928#0_0" lane="-129068928#0_0" pos="30.20" period="300.00" file="detector_data.xml" />
    <e1Detector id="e1_-129068928#1_0" lane="-129068928#1_0" pos="27.84" period="300.00" file="detector_data.xml" />
    <e1Detector id="e1_-129068928#2_0" lane="-129068928#2_0" pos="46.84" period="300.00" file="detector_data.xml" />
    <e1Detector id="e1_-129068928#3_0" lane="-129068928#3_0" pos="32.83" period="300.00" file="detector_data.xml" />
    <e1Detector id="e1_-129068928#5_0" lane="-129068928#5_0" pos="71.46" period="300.00" file="detector_data.xml" />
    <e1Detector id="e1_-129211786#2_0" lane="-129211786#2_0" pos="60.16" period="300.00" file="detector_data.xml" />
    <e1Detector id="e1_-129211787#1_0" lane="-129211787#1_0" pos="77.27" period="300.00" file="detector_data.xml" />
    <e1Detector id="e1_-129211789#0_0" lane="-129211789#0_0" pos="7.68" period="300.00" file="detector_data.xml" />
    <e1Detector id="e1_-129211789#3_0" lane="-129211789#3_0" pos="111.53" period="300.00" file="detector_data.xml" />
    <e1Detector id="e1_-129211789#5_0" lane="-129211789#5_0" pos="7.20" period="300.00" file="detector_data.xml" />
    <e1Detector id="e1_-129211791#2_0" lane="-129211791#2_0" pos="29.95" period="300.00" file="detector_data.xml" />
    <e1Detector id="e1_-129211792_0" lane="-129211792_0" pos="24.79" period="300.00" file="detector_data.xml" />
    <e1Detector id="e1_-129211795_0" lane="-129211795_0" pos="17.66" period="300.00" file="detector_data.xml" />
    <e1Detector id="e1_-129211796#2_0" lane="-129211796#2_0" pos="62.16" period="300.00" file="detector_data.xml" />
    <e1Detector id="e1_-129211797#1_0" lane="-129211797#1_0" pos="30.20" period="300.00" file="detector_data.xml" />
    <e1Detector id="e1_-129211797#2_0" lane="-129211797#2_0" pos="26.64" period="300.00" file="detector_data.xml" />
    <e1Detector id="e1_-129211797#4_0" lane="-129211797#4_0" pos="23.77" period="300.00" file="detector_data.xml" />
    <e1Detector id="e1_-129211798#1_0" lane="-129211798#1_0" pos="17.96" period="300.00" file="detector_data.xml" />
    <e1Detector id="e1_-129211798#2_0" lane="-129211798#2_0" pos="25.23" period="300.00" file="detector_data.xml" />
    <e1Detector id="e1_-129211798#3_0" lane="-129211798#3_0" pos="8.62" period="300.00" file="detector_data.xml" />
    <e1Detector id="e1_-129211798#4_0" lane="-129211798#4_0" pos="8.10" period="300.00" file="detector_data.xml" />
    <e1Detector id="e1_-129211805#0_0" lane="-129211805#0_0" pos="3.73" period="300.00" file="detector_data.xml" />
    <e1Detector id="e1_-129211805#1_0" lane="-129211805#1_0" pos="39.28" period="300.00" file="detector_data.xml" />
    <e1Detector id="e1_-129211805#4_0" lane="-129211805#4_0" pos="37.41" period="300.00" file="detector_data.xml" />
    <e1Detector id="e1_-129211806#0_0" lane="-129211806#0_0" pos="24.06" period="300.00" file="detector_data.xml" />
    <e1Detector id="e1_-129211806#1_0" lane="-129211806#1_0" pos="35.04" period="300.00" file="detector_data.xml" />
    <e1Detector id="e1_-129211806#3_0" lane="-129211806#3_0" pos="24.70" period="300.00" file="detector_data.xml" />
    <e1Detector id="e1_-129211806#4_0" lane="-129211806#4_0" pos="6.07" period="300.00" file="detector_data.xml" />
    <e1Detector id="e1_-129211808#3_0" lane="-129211808#3_0" pos="38.70" period="300.00" file="detector_data.xml" />
    <e1Detector id="e1_-129211808#5_0" lane="-129211808#5_0" pos="7.54" period="300.00" file="detector_data.xml" />
    <e1Detector id="e1_-129211809#2_0" lane="-129211809#2_0" pos="35.33" period="300.00" file="detector_data.xml" />
    <e1Detector id="e1_-129211810#0_0" lane="-129211810#0_0" pos="7.85" period="300.00" file="detector_data.xml" />
    <e1Detector id="e1_-129211810#1_0" lane="-129211810#1_0" pos="19.19" period="300.00" file="detector_data.xml" />
    <e1Detector id="e1_-129211811#3_0" lane="-129211811#3_0" pos="19.98" period="300.00" file="detector_data.xml" />
    <e1Detector id="e1_-129211811#5_0" lane="-129211811#5_0" pos="5.89" period="300.00" file="detector_data.xml" />
    <e1Detector id="e1_-129211811#6_0" lane="-129211811#6_0" pos="9.17" period="300.00" file="detector_data.xml" />
    <e1Detector id="e1_-129211812#1_0" lane="-129211812#1_0" pos="10.29" period="300.00" file="detector_data.xml" />
    <e1Detector id="e1_-129211812#4_0" lane="-129211812#4_0" pos="7.54" period="300.00" file="detector_data.xml" />
    <e1Detector id="e1_-129211812#6_0" lane="-129211812#6_0" pos="7.37" period="300.00" file="detector_data.xml" />
    <e1Detector id="e1_-129211812#7_0" lane="-129211812#7_0" pos="2.04" period="300.00" file="detector_data.xml" />
    <e1Detector id="e1_-129211813#0_0" lane="-129211813#0_0" pos="45.44" period="300.00" file="detector_data.xml" />
    <e1Detector id="e1_-129211813#1_0" lane="-129211813#1_0" pos="3.94" period="300.00" file="detector_data.xml" />
    <e1Detector id="e1_-129211816#0_0" lane="-129211816#0_0" pos="44.23" period="300.00" file="detector_data.xml" />
    <e1Detector id="e1_-129211816#1_0" lane="-129211816#1_0" pos="15.35" period="300.00" file="detector_data.xml" />
    <e1Detector id="e1_-129211816#2_0" lane="-129211816#2_0" pos="16.77" period="300.00" file="detector_data.xml" />
    <e1Detector id="e1_-129211817#1_0" lane="-129211817#1_0" pos="30.69" period="300.00" file="detector_data.xml" />
    <e1Detector id="e1_-129211817#2_0" lane="-129211817#2_0" pos="25.73" period="300.00" file="detector_data.xml" />
    <e1Detector id="e1_-129211818#1_0" lane="-129211818#1_0" pos="44.06" period="300.00" file="detector_data.xml" />
    <e1Detector id="e1_-129211818#2_0" lane="-129211818#2_0" pos="18.73" period="300.00" file="detector_data.xml" />
    <e1Detector id="e1_-129211821#1_0" lane="-129211821#1_0" pos="26.14" period="300.00" file="detector_data.xml" />
    <e1Detector id="e1_-129211821#2_0" lane="-129211821#2_0" pos="5.88" period="300.00" file="detector_data.xml" />